  62
        -98.93910167
 C          2.6164469294        0.1986176901       -0.4193545667
 C          2.2361560618        0.8251397362        0.7920974370
 C          1.6346916806        2.1594134375        0.6657253913
 C          1.5006141713        2.7078438628       -0.5550833114
 C          0.7923908905        3.9979578626       -0.8561534620
 C         -0.7320855961        3.7596852996       -0.8603929141
 C         -1.4877983057        4.4885572102        0.2511317706
 H         -1.5603168683        5.5485621918       -0.0033713912
 H         -2.5004781772        4.0806862257        0.2706174293
 C         -0.8791066954        4.3811274802        1.6529029418
 H         -0.0633814041        5.0992289665        1.7530037400
 H         -1.6525543845        4.6873379758        2.3604523958
 C         -0.3629406977        2.9932856563        2.0558389375
 H         -0.6195583508        2.8232506318        3.1036796856
 H         -0.8532080040        2.2115486001        1.4737053176
 C          1.1634616791        2.8229335886        1.9289676206
 H          1.6568352259        3.7920409021        2.0447905461
 H          1.5138018916        2.1726335726        2.7358285730
 H         -0.9142937564        2.6852841393       -0.7784363785
 H         -1.1464658815        4.0742782856       -1.8201802424
 H          1.0621771253        4.7494382611       -0.1173291115
 H          1.1272049412        4.3339466827       -1.8380918124
 O          1.9310385919        2.0982057129       -1.6919454043
 C          2.4574550301        0.8171789285       -1.6564690051
 O          2.7510781089        0.3483365654       -2.7777658463
 H          0.4486299266       -0.9389665946       -0.6005647471
 C          0.6964434295       -1.7901613662        0.0168840869
 C          2.0302036978       -2.1135326706        0.2313311933
 C          2.3225449881       -3.2315344371        1.0015391307
 C          1.3004937896       -3.9868915161        1.5521447601
 C         -0.0239709699       -3.6385659593        1.3654293334
 C         -0.3269683197       -2.5167036739        0.5992523913
 N         -1.6568358385       -2.0910673120        0.4512810706
 S         -2.0793210790       -0.8513199750       -0.5975167423
 O         -1.7815609009       -1.2123525505       -1.9681500112
 O         -1.5150812945        0.3853235379       -0.1207528186
 C         -3.8437435470       -0.8430699323       -0.3459546058
 C         -4.6512179172       -1.5890085089       -1.1837028216
 C         -6.0193225442       -1.6008033657       -0.9617505972
 C         -6.5539728696       -0.8711709216        0.0894735944
 C         -5.7314805166       -0.1252256389        0.9206132913
 C         -4.3627052324       -0.1099689450        0.7041288560
 H         -3.6842861405        0.4588532065        1.3188142691
 H         -6.1504569048        0.4438538341        1.7346782384
 H         -7.6188645750       -0.8813022797        0.2600292367
 H         -6.6613640630       -2.1768102844       -1.6084361771
 H         -4.1919969385       -2.1299473671       -1.9955567288
 H         -2.3427106608       -2.8302315609        0.4930694639
 H         -0.8167608233       -4.2165187908        1.8140875606
 H          1.5412963434       -4.8559696241        2.1454390807
 H          3.3499244512       -3.5085839990        1.1737252298
 C          3.0921942628       -1.2417146950       -0.4000666182
 H          3.2010986696       -1.5419119957       -1.4538269066
 C          4.4395651850       -1.3575178604        0.2833733899
 C          5.4349134590       -2.3831543392       -0.1671315729
 C          5.6655551871       -0.9332763212       -0.4661572116
 H          6.4427691569       -0.4097598329        0.0697785820
 H          5.5271639889       -0.5894512129       -1.4813238083
 H          6.0598818360       -2.8557799503        0.5755578790
 H          5.1541928717       -3.0277686229       -0.9865608412
 H          4.3884565201       -1.1173784479        1.3389903329
 O          2.3801231638        0.2888314530        1.9225753792
