  62
        -98.94514233
 C         -2.5247569422       -0.3100165636        0.0303075016
 C         -2.1769786110       -1.2992118648       -0.9191005029
 C         -1.5420539978       -2.5109232519       -0.3879326345
 C         -1.3451673669       -2.6209636407        0.9386105708
 C         -0.7218987607       -3.8066479862        1.6173586467
 C          0.7909685142       -3.6355102082        1.8019944181
 C          1.5325444569       -3.2151408890        0.5328237307
 H          1.2503937312       -2.1906966991        0.2780690090
 H          2.5982131992       -3.1946359976        0.7748923694
 C          1.3029631956       -4.1253870013       -0.6811450311
 H          2.2627010877       -4.2905488326       -1.1751937842
 H          0.9327451178       -5.0979585531       -0.3531857973
 C          0.3560378772       -3.5472491581       -1.7351889549
 H          0.4766044876       -4.1249313158       -2.6560624155
 H          0.6462711335       -2.5151459186       -1.9538951969
 C         -1.1354888412       -3.5687960312       -1.3743844926
 H         -1.7035905635       -3.3606581993       -2.2860728375
 H         -1.4137100423       -4.5624026595       -1.0155209956
 H          0.9629164297       -2.8663412941        2.5583923990
 H          1.1996866565       -4.5789515541        2.1702947456
 H         -1.1856475789       -3.9156729898        2.5997056979
 H         -0.9272354784       -4.6991237547        1.0286219524
 O         -1.6950078239       -1.6517273893        1.8217692248
 C         -2.2405344076       -0.4536361528        1.3884289921
 O         -2.4509835552        0.3736686025        2.2963676099
 O         -2.3977573341       -1.1752104218       -2.1566702105
 C         -3.1001362527        1.0062093101       -0.4637280620
 C         -2.0812438039        2.0970142765       -0.2377446780
 C         -2.3785828879        3.3578197069        0.2595023630
 C         -1.3713140611        4.2904744776        0.4534038835
 C         -0.0509431492        3.9819286633        0.1828790179
 C          0.2542239027        2.7227254627       -0.3214997880
 C         -0.7582244751        1.8122775122       -0.5556693921
 H         -0.5083536966        0.8458300733       -0.9712410511
 N          1.6069441698        2.3408879618       -0.5333327865
 S          1.9632512884        0.7086322480       -0.3825968231
 O          1.7140594777       -0.0146658858       -1.6145914445
 O          1.3163337077        0.2237068546        0.8097022707
 C          3.7230389684        0.8054429374       -0.1123646883
 C          4.1654942595        1.3753089738        1.0662554773
 C          5.5285601192        1.4817007288        1.2896526419
 C          6.4229739687        1.0183861709        0.3355673758
 C          5.9645218617        0.4460727319       -0.8408172238
 C          4.6013265494        0.3382674989       -1.0701668298
 H          4.1975292925       -0.1024294408       -1.9675562296
 H          6.6612339250        0.0840649268       -1.5796795773
 H          7.4837468564        1.1022549116        0.5117438409
 H          5.8883605550        1.9239467824        2.2046834167
 H          3.4317240777        1.7131294736        1.7797877711
 H          2.0411665868        2.7567326538       -1.3446119359
 H          0.7377538035        4.6947347426        0.3611296681
 H         -1.6198568281        5.2668579983        0.8407987914
 H         -3.3980951957        3.6093775930        0.5032346086
 H         -3.2241242522        0.8780794773       -1.5504837213
 C         -4.4511813785        1.2950630985        0.1526483886
 C         -5.4606906039        2.1114718432       -0.5965356759
 C         -5.6664053174        0.6371730487       -0.4270391314
 H         -6.4372906802        0.2949959900        0.2466728255
 H         -5.5206890337       -0.0033909602       -1.2847991547
 H         -6.0962958239        2.7828065629       -0.0393028867
 H         -5.1836768059        2.4734642347       -1.5751548517
 H         -4.4026468045        1.3971537722        1.2305433246
