  62
        -98.95135447
 C          2.3403613891        0.0769288437        0.1121992487
 C          1.6091871687       -0.4851308537       -0.9607471692
 C          1.4420595271       -1.9428673309       -0.9275757868
 C          1.8930372646       -2.6397542453        0.1311890679
 C          1.8035511556       -4.1303564840        0.3157610237
 C          0.4466813926       -4.6091651733        0.8494656786
 C         -0.6901351858       -4.6094608899       -0.1729823181
 H         -0.3647772740       -5.1260986238       -1.0771170888
 H         -1.5075465089       -5.1897191978        0.2598694043
 C         -1.2193080583       -3.2149229353       -0.5354832711
 H         -2.3126352093       -3.2337353324       -0.5445476143
 H         -0.9274441890       -2.4966808098        0.2347664890
 C         -0.7680631503       -2.6987159087       -1.9009717969
 H         -1.1893799999       -1.7009891555       -2.0370605393
 H         -1.1695763846       -3.3448595790       -2.6854577597
 C          0.7522957649       -2.6074138555       -2.0825903656
 H          1.1686209180       -3.6033837755       -2.2368343815
 H          0.9512701937       -2.0045678850       -2.9724578330
 H          0.5809131961       -5.6308052186        1.2133131958
 H          0.1655309049       -3.9849809814        1.7015579791
 H          2.0231347146       -4.6326635212       -0.6271461411
 H          2.5747020698       -4.3991208249        1.0411170980
 O          2.5247743276       -2.0516567967        1.1818417788
 C          2.7678034694       -0.6889616195        1.1957359381
 O          3.3708855362       -0.2828447693        2.2120091380
 H          0.5262679559        1.0018961192        1.6914710468
 C          0.3214244368        1.8594816400        1.0672013628
 C          1.2969853061        2.3196128676        0.1921503874
 C          1.0142159100        3.4330345499       -0.5889698948
 C         -0.2239354606        4.0479031165       -0.5088531562
 C         -1.2098580521        3.5538770695        0.3261381868
 C         -0.9329230573        2.4444490084        1.1167204342
 N         -1.9085007775        1.8729251254        1.9608648778
 S         -2.3557888510        0.2914655316        1.6237182671
 O         -3.4289810428       -0.0001575563        2.5497559283
 O         -1.2052620667       -0.5713705441        1.6898131001
 C         -3.0133014217        0.3719715755       -0.0330241309
 C         -4.3849951321        0.3479072813       -0.2004413991
 C         -4.9107852443        0.4879601080       -1.4742351933
 C         -4.0599048769        0.6644831804       -2.5553118625
 C         -2.6868844007        0.6935167572       -2.3700529609
 C         -2.1523899738        0.5445817619       -1.0986498863
 H         -1.0852449429        0.5548934372       -0.9408246176
 H         -2.0144425011        0.8285804689       -3.2023540011
 H         -4.4671367229        0.7796113311       -3.5473382480
 H         -5.9788124338        0.4632083575       -1.6191360781
 H         -5.0057844921        0.2122877847        0.6704730674
 H         -2.7417823381        2.4372347767        2.0596963945
 H         -2.1843727038        4.0166139313        0.3664834445
 H         -0.4304208689        4.9124026615       -1.1209633256
 H          1.7609569056        3.8156991687       -1.2651215545
 C          2.6078343817        1.5720590750        0.1523165252
 H          3.1334446533        1.7590265139        1.1006390489
 C          3.5058621797        1.9817210839       -0.9961268720
 C          4.4225237992        3.1585539573       -0.8540394394
 C          4.9833269861        1.7691277668       -0.8686879214
 H          5.5346569362        1.4416179544       -1.7371835624
 H          5.3446666953        1.3509124379        0.0599394142
 H          4.5940700270        3.7864035345       -1.7153126842
 H          4.4131583933        3.6894558119        0.0859565567
 H          3.0556742699        1.7943795725       -1.9639351306
 O          1.1302382754        0.1934606744       -1.9074434475
