  62
        -98.94533370
 C          1.5565493762        1.0324038851        0.2914388277
 C          2.8812213709        1.1686863006        0.7769066337
 C          3.9503585302        0.7824329213       -0.1493036358
 C          3.6373330554        0.3341394099       -1.3785384679
 C          4.6147133363       -0.0843783634       -2.4432782854
 C          5.1006735436       -1.5339010556       -2.3077154613
 C          6.0737901166       -1.7885630211       -1.1558395867
 H          6.4988248556       -2.7824046828       -1.3098272250
 H          6.8937940294       -1.0717990870       -1.2097768653
 C          5.4329142211       -1.7369476454        0.2382060442
 H          5.7726122763       -2.5922909999        0.8267451064
 H          4.3477668148       -1.8259431648        0.1441586452
 C          5.7598044726       -0.4767856781        1.0397427842
 H          5.2261619215       -0.5291081219        1.9921077714
 H          6.8302092950       -0.4471511090        1.2548928897
 C          5.3640780688        0.8334455208        0.3463370549
 H          5.4310861387        1.6421362258        1.0780950926
 H          6.0481104905        1.0461885563       -0.4747655399
 H          4.2298782693       -2.1854201299       -2.2009603220
 H          5.6003860079       -1.7988874769       -3.2424219899
 H          5.4716082057        0.5898724593       -2.4403934470
 H          4.0953669295        0.0160530590       -3.3987514327
 O          2.3540467849        0.2269717074       -1.8123328825
 C          1.2826693197        0.5479837956       -0.9881346945
 O          0.1698239155        0.3770458193       -1.5198215184
 O          3.1564024552        1.5965505985        1.9297091580
 C          0.4127056518        1.3779802500        1.2315160145
 C         -0.2415223493        0.0908709004        1.6716377428
 C          0.4517870462       -0.7556606435        2.5342292948
 C         -0.1017712325       -1.9536779712        2.9411494457
 C         -1.3506925728       -2.3403484304        2.4839916608
 C         -2.0469093835       -1.5080641775        1.6176670613
 C         -1.4962528355       -0.2939549089        1.2289255997
 H         -2.0508513836        0.3443181937        0.5652192494
 N         -3.3244969063       -1.8555217670        1.1425469114
 S         -3.5854533358       -1.8234090635       -0.5207133386
 O         -4.7614122940       -2.6502911438       -0.7061035008
 O         -2.4060202080       -2.2373334796       -1.2434375115
 C         -4.0177620774       -0.1352573865       -0.8792194121
 C         -3.1916999288        0.6416294933       -1.6672991150
 C         -3.5607792501        1.9537901070       -1.9230537770
 C         -4.7371988103        2.4604268472       -1.3923386403
 C         -5.5555988448        1.6636639797       -0.6053927064
 C         -5.1955205012        0.3513551405       -0.3460550322
 H         -5.8037822782       -0.3050783966        0.2535058760
 H         -6.4687145608        2.0620705723       -0.1934976513
 H         -5.0151397869        3.4832741900       -1.5932404027
 H         -2.9195749429        2.5732275828       -2.5304461674
 H         -2.2665734187        0.2250537417       -2.0361646987
 H         -3.6841285748       -2.7177240827        1.5286447011
 H         -1.7814492566       -3.2808314183        2.7939707344
 H          0.4440876288       -2.5977345255        3.6143639991
 H          1.4328049894       -0.4587462054        2.8787864644
 H          0.8919908329        1.8288333726        2.1122011135
 C         -0.5483103861        2.3789620612        0.6279851428
 C         -1.5344078325        3.0811252067        1.5116786046
 C         -0.3801053536        3.8370105620        0.9273352277
 H         -0.5736127171        4.5490725098        0.1394466967
 H          0.4288274981        4.1226601899        1.5837924084
 H         -2.5244921075        3.2708980961        1.1258481255
 H         -1.5080380740        2.8519904236        2.5661624182
 H         -0.8676172020        2.1131829106       -0.3719673564
