  62
        -98.93955384
 C         -1.5066537001       -1.3540079790       -0.7487159296
 C         -2.7015572503       -1.0301401678       -0.0583526305
 C         -3.3053132793        0.2832714423       -0.3304250016
 C         -2.7076818383        1.1124329414       -1.2059179218
 C         -3.0981749172        2.4896858014       -1.6996644729
 C         -4.1203641571        3.3286713525       -0.9376420840
 C         -3.6701707077        3.7770595731        0.4519861660
 H         -4.5054717276        4.2939370239        0.9301899552
 H         -2.8534290672        4.4948015025        0.3397280760
 C         -3.1782339289        2.6681211633        1.3798165270
 H         -2.9109916292        3.1283660338        2.3356756568
 H         -2.2613935289        2.2273855325        0.9792434178
 C         -4.1887510997        1.5579798041        1.6663196771
 H         -5.1174269297        1.9950183449        2.0391420062
 H         -3.7689583306        0.9332806644        2.4596878277
 C         -4.5189864096        0.6355453036        0.4794176774
 H         -5.2927447590        1.0640198137       -0.1532443733
 H         -4.9047903904       -0.3060121459        0.8811298078
 H         -5.0699973475        2.8051780531       -0.8776092442
 H         -4.2907688162        4.2287941322       -1.5347600547
 H         -3.4587629067        2.3515442410       -2.7252790430
 H         -2.1604152368        3.0499819108       -1.7722305527
 O         -1.5770121681        0.7486561403       -1.8706370409
 C         -0.9232543990       -0.4494957799       -1.6325162398
 O          0.1349201713       -0.5653114110       -2.2831744191
 O         -3.2510212713       -1.8200832870        0.7575646597
 C         -0.8518584811       -2.6723622292       -0.3706335583
 C          0.0322714383       -2.4464407890        0.8347712520
 C         -0.1004759928       -3.2182349182        1.9817272624
 C          0.6619742167       -2.9422399879        3.1033141227
 C          1.5389370473       -1.8735774985        3.1108939826
 C          1.6823031985       -1.0967837693        1.9647887622
 C          0.9619332289       -1.4158471995        0.8249382019
 H          1.0847986798       -0.8190451702       -0.0628449084
 N          2.5490963691        0.0039255602        1.9540713520
 S          2.1982552305        1.4278263599        1.1313711709
 O          2.6432694806        2.4775884702        2.0276371305
 O          0.8178530408        1.4901094805        0.7181871100
 C          3.3183365813        1.3761168084       -0.2525069284
 C          4.6358801813        1.7143071877       -0.0029422678
 C          5.5518466119        1.6718550165       -1.0400431273
 C          5.1382947824        1.2914992260       -2.3083575873
 C          3.8146373024        0.9558753366       -2.5427054578
 C          2.8911108918        0.9964362578       -1.5078326284
 H          1.8577787017        0.7327355984       -1.6759303689
 H          3.4849715128        0.6576916462       -3.5252973579
 H          5.8493995329        1.2577182450       -3.1187347468
 H          6.5815383020        1.9346645160       -0.8585829568
 H          4.9092811609        2.0187013382        0.9937224221
 H          2.9758967987        0.2050831405        2.8466611921
 H          2.1038560869       -1.6322751082        3.9986439528
 H          0.5519797358       -3.5477520273        3.9902133730
 H         -0.8233816833       -4.0201455277        2.0008600625
 H         -1.6745776217       -3.3308491085       -0.0583660884
 C         -0.0895055009       -3.3539200403       -1.4870721575
 C          0.0980485382       -4.8398069704       -1.4362923764
 C         -0.8269586808       -4.2349205805       -2.4484487974
 H         -0.5286818502       -4.2245728413       -3.4857267072
 H         -1.8909812310       -4.3520813497       -2.3023276379
 H          1.0355367882       -5.2507182312       -1.7774386856
 H         -0.3402860826       -5.3730179996       -0.6064346464
 H          0.7206350597       -2.7566246011       -1.8833672574
