  62
        -98.93890126
 C          1.5412867135        1.6092366726        0.1849791867
 C          1.8494292299        0.8121180644       -0.9412904670
 C          2.8072644425       -0.2936951093       -0.7338682250
 C          3.3012978012       -0.5265257291        0.4956162817
 C          4.2940012423       -1.5504574145        1.0059167723
 C          4.7834316500       -2.6818316726        0.1062533820
 C          3.7356949279       -3.7542161195       -0.1971293887
 H          4.1418977830       -4.4293570422       -0.9531323925
 H          3.5656582529       -4.3373493348        0.7113387321
 C          2.3782670060       -3.2372910625       -0.6666217679
 H          1.7136856118       -4.0965990494       -0.7917542308
 H          1.9402557287       -2.6066169915        0.1078770359
 C          2.3914476799       -2.4665243292       -1.9840461700
 H          1.3514058642       -2.2775432636       -2.2677329459
 H          2.8380286924       -3.0831445815       -2.7669105891
 C          3.1249649757       -1.1161364685       -1.9509585581
 H          2.7890677088       -0.5314645254       -2.8126117918
 H          4.1988478904       -1.2529265320       -2.0514788980
 H          5.6061874753       -3.1686904892        0.6365711252
 H          5.1995868417       -2.2774356647       -0.8118813737
 H          5.1627905413       -0.9715448239        1.3377323110
 H          3.8503660832       -1.9793756171        1.9103534110
 O          2.9497937380        0.2503486176        1.5623233939
 C          2.0909109071        1.3258518082        1.4392060054
 O          1.8947882053        1.9439377593        2.5023539168
 O          1.3671079473        0.9901136047       -2.0932947341
 C          0.5910593014        2.7995806866        0.1486417764
 C         -0.8373841256        2.3148837258        0.2111866021
 C         -1.6549524015        2.6019064543        1.2977262254
 C         -2.9373471341        2.0845964605        1.3722147418
 C         -3.4192840228        1.2476604321        0.3813055080
 C         -2.6036848914        0.9491626599       -0.7021469453
 C         -1.3370348130        1.5026900888       -0.7962659218
 H         -0.7094141406        1.2606389414       -1.6409751496
 N         -3.0391232875        0.0115370284       -1.6623975943
 S         -3.4275119726       -1.4899409619       -1.0167528601
 O         -2.9918545066       -2.4659710295       -1.9912248947
 O         -4.8337289768       -1.5141080800       -0.6976279940
 C         -2.4838217124       -1.6213794707        0.4968480848
 C         -1.1108017445       -1.4767131291        0.4489637670
 C         -0.3967157116       -1.4973689042        1.6355153004
 C         -1.0562123601       -1.6769570610        2.8412052200
 C         -2.4318906408       -1.8410442666        2.8703999354
 C         -3.1546262874       -1.8040454207        1.6890595959
 H         -4.2275224913       -1.9047532238        1.6666456269
 H         -2.9422901178       -1.9840486253        3.8089828150
 H         -0.4897579650       -1.6817127124        3.7590815291
 H          0.6722195271       -1.3518187284        1.6188640523
 H         -0.6114752285       -1.3399672569       -0.4978535230
 H         -2.3763724044       -0.1023007051       -2.4174293848
 H         -4.4008220928        0.8046297454        0.4380059671
 H         -3.5613199875        2.3195129728        2.2206312902
 H         -1.2709268387        3.2167798428        2.0982715534
 H          0.7940649977        3.3676677622        1.0658088660
 C          0.8183829616        3.7119441892       -1.0403525937
 C          0.3484328587        5.1321761347       -0.9645851604
 C          1.8149024456        4.8245333972       -0.9294111222
 H          2.4162291127        5.0652399012       -1.7932399033
 H          2.3373116393        4.9363406915        0.0097551268
 H         -0.0608036797        5.5868925069       -1.8536172326
 H         -0.1227557868        5.4555006593       -0.0487583362
 H          0.7446359934        3.2076281892       -1.9945301741
