  62
        -98.93973315
 C          1.1649520786        1.3611797402        0.0209132788
 C          1.5751237418        0.3151045946        0.8823915734
 C          2.4758159072       -0.6990200827        0.3103706469
 C          2.8004280250       -0.6263233233       -0.9918071112
 C          3.6829073986       -1.5431601826       -1.8028323272
 C          4.9552936189       -2.0773736595       -1.1348525975
 C          5.6518836881       -1.0845993663       -0.1926816081
 H          6.7035769544       -1.0051412194       -0.4740257415
 H          5.2103444934       -0.0925958526       -0.3022700583
 C          5.5889257772       -1.5093567179        1.2762814262
 H          5.7938949423       -2.5801495655        1.3413631113
 H          6.3793590495       -0.9921496250        1.8255247273
 C          4.2703929703       -1.2072808949        1.9875413539
 H          4.1625978241       -0.1277971872        2.1239948021
 H          4.3166082659       -1.6521847371        2.9844298743
 C          3.0060913501       -1.7184939950        1.2771976593
 H          3.1892041673       -2.6769111558        0.7988342682
 H          2.2248762161       -1.8492379185        2.0306657374
 H          5.6380917453       -2.3571439556       -1.9390728985
 H          4.7279972053       -2.9903573999       -0.5867779480
 H          3.9540832999       -0.9634218098       -2.6887680063
 H          3.0797552111       -2.3873078771       -2.1503880789
 O          2.3007879677        0.3434778168       -1.8086018784
 C          1.4825281719        1.3577357388       -1.3365301837
 O          1.1218268529        2.1639257764       -2.2136509250
 O          1.2064645769        0.2336620231        2.0847968815
 C          0.2962651566        2.4655294061        0.6024272838
 C         -1.1258896299        2.2251159585        0.1632924300
 C         -1.7190109550        2.8843848474       -0.9054806096
 C         -3.0074248775        2.5623913819       -1.2982176433
 C         -3.7307698897        1.5881767737       -0.6333932642
 C         -3.1445022983        0.9249140236        0.4366872874
 C         -1.8532378987        1.2432566777        0.8264746766
 H         -1.3894136134        0.7141480941        1.6491934790
 N         -3.8744004106       -0.0845663696        1.1088303406
 S         -4.0832640123       -1.5039784363        0.2464274155
 O         -4.7894971702       -1.2044898800       -0.9718982551
 O         -4.7251537574       -2.4274303571        1.1530626365
 C         -2.4310606050       -2.0671242286       -0.1218038222
 C         -1.7408383143       -1.4809337877       -1.1642040005
 C         -0.4393585899       -1.8846870298       -1.4137812046
 C          0.1451696157       -2.8600454792       -0.6211754414
 C         -0.5581592743       -3.4329519743        0.4264635302
 C         -1.8577844299       -3.0297426178        0.6845448131
 H         -2.4433591995       -3.4509570931        1.4860382104
 H         -0.0957311171       -4.1873610512        1.0422221460
 H          1.1569289414       -3.1736874734       -0.8208008472
 H          0.1140778481       -1.4280590588       -2.2199300812
 H         -2.2251873936       -0.7285413474       -1.7660240899
 H         -3.4834390021       -0.3122277453        2.0132643777
 H         -4.7278890134        1.3158952504       -0.9385448435
 H         -3.4546565080        3.0783532407       -2.1344123615
 H         -1.1628791249        3.6337727931       -1.4440059878
 H          0.3373437522        2.3211478877        1.6908713572
 C          0.8153117804        3.8492426324        0.2773603408
 C          0.2957873359        5.0224375472        1.0516900327
 C          1.7012061015        4.5479353409        1.2631628146
 H          2.5128030318        5.1528863940        0.8875582330
 H          1.9326084075        4.0319070195        2.1836743708
 H          0.1403753934        5.9555815105        0.5324760932
 H         -0.4285196077        4.8255975850        1.8276805193
 H          1.0366367633        3.9926736739       -0.7725426109
