  62
        -98.94105533
 C         -2.5972731394       -1.3216369683        0.2400141372
 C         -2.4071870196       -0.2365332758       -0.6531610320
 C         -3.5216398128        0.7199016545       -0.7401875849
 C         -4.6427271323        0.5209458899       -0.0256690225
 C         -5.8709995046        1.3896274506       -0.0364514459
 C         -5.7868989180        2.5988114373        0.9049491038
 C         -4.8485623091        3.7159201197        0.4465276682
 H         -5.0931173461        3.9975732540       -0.5781318119
 H         -5.0490616057        4.5827498265        1.0792588658
 C         -3.3558697451        3.3698219521        0.5441276381
 H         -2.8165066191        4.2029598893        1.0003481829
 H         -3.2223983630        2.5067862639        1.2006899912
 C         -2.6828700038        3.0780614820       -0.7974056501
 H         -2.6895703581        3.9795411490       -1.4145447017
 H         -1.6394111535        2.8097515991       -0.6081575455
 C         -3.3299765513        1.9370934804       -1.5935589000
 H         -2.6581160326        1.6691122303       -2.4129432096
 H         -4.2814876350        2.2634521759       -2.0132458392
 H         -6.7937540607        3.0130814708        0.9937532031
 H         -5.4819068305        2.2505907133        1.8944104675
 H         -6.0699725103        1.7308997189       -1.0526851936
 H         -6.7008437459        0.7580665510        0.2880017709
 O         -4.7948917865       -0.5435583644        0.8056561411
 C         -3.7718548622       -1.4589036241        0.9873512993
 O         -4.0277280208       -2.3439883969        1.8278592990
 O         -1.3799972127       -0.0603180542       -1.3583075422
 C         -1.5207037600       -2.3631159622        0.5036604428
 C         -0.2091315806       -1.6699784718        0.7734109557
 C          0.0096381943       -1.0879618860        2.0182594504
 C          1.1813927167       -0.4030931158        2.2797564179
 C          2.1529548553       -0.2743473084        1.3023835454
 C          1.9334108498       -0.8323012905        0.0505075272
 C          0.7666177336       -1.5428837446       -0.2011744199
 H          0.5989317344       -1.9613149257       -1.1812643304
 N          2.9054744164       -0.7007345225       -0.9536429473
 S          3.7003942801        0.7624312739       -1.1467298142
 O          2.8913802881        1.8880258708       -0.7414877197
 O          4.1591660167        0.7598889668       -2.5191906298
 C          5.1136109856        0.6077640037       -0.0714673180
 C          5.8983902462       -0.5232843682       -0.1840522746
 C          7.0081513689       -0.6528139639        0.6354243375
 C          7.3156032270        0.3464990374        1.5467476978
 C          6.5204293381        1.4777489645        1.6453762412
 C          5.4080954338        1.6126187776        0.8289493904
 H          4.7582922973        2.4723267181        0.8749369178
 H          6.7608584621        2.2542395203        2.3537820313
 H          8.1800039731        0.2433603043        2.1835456166
 H          7.6287974321       -1.5312670482        0.5615657016
 H          5.6273773381       -1.2752565154       -0.9060230682
 H          2.6145211216       -1.0718649097       -1.8465749186
 H          3.0613313763        0.2729171319        1.4942427799
 H          1.3397470481        0.0401454321        3.2512957490
 H         -0.7577145624       -1.1712708593        2.7760876417
 H         -1.8361706889       -2.8647662241        1.4322903001
 C         -1.4122386044       -3.4488563246       -0.5567959531
 C         -2.6489840328       -4.0314364285       -1.1715037743
 C         -1.7092892159       -3.2169028476       -2.0064048125
 H         -1.1017336461       -3.7298015916       -2.7383058397
 H         -2.0131251479       -2.2279614258       -2.3108094535
 H         -2.6926268121       -5.0978533322       -1.3331567001
 H         -3.5953192179       -3.5919713578       -0.8907745868
 H         -0.6106954364       -4.1463541191       -0.3323824512
