  62
        -98.94302000
 C          1.9979048198        0.5111795428        0.8729436722
 C          2.8897617369        1.1659084996       -0.0120270218
 C          4.2743777804        0.6733096222       -0.0031930302
 C          4.6319872597       -0.3266784834        0.8210200255
 C          6.0076100707       -0.9217012019        0.9523921436
 C          6.3229554071       -2.0007808834       -0.0925849852
 C          6.5577840785       -1.4830516315       -1.5122555424
 H          7.3043571912       -0.6885960916       -1.4887990001
 H          6.9795471399       -2.3093021397       -2.0880738947
 C          5.2917784700       -0.9825431627       -2.2217432496
 H          4.4084912805       -1.3618588116       -1.7022956058
 H          5.2612051181       -1.3837412257       -3.2373003081
 C          5.1864377915        0.5385112719       -2.3319866068
 H          5.9934667960        0.9166443617       -2.9634074106
 H          4.2372206358        0.7811797719       -2.8159444500
 C          5.2338623842        1.2738262288       -0.9863200074
 H          6.2470128161        1.2611524006       -0.5855652703
 H          4.9346217967        2.3114943445       -1.1518619545
 H          5.5078355362       -2.7283193680       -0.0998695099
 H          7.2268584152       -2.5185534227        0.2368015239
 H          6.7562607363       -0.1308240290        0.8981631231
 H          6.0549762257       -1.3781226270        1.9435172115
 O          3.7516425154       -0.9173208744        1.6726585600
 C          2.4241194416       -0.5280872717        1.7061400558
 O          1.7287642868       -1.1686674573        2.5216550704
 H         -1.4557176037       -0.9470465195        1.2205788307
 C         -1.2771992983       -0.6660410253        0.1933090490
 C         -0.2877662799        0.2562861116       -0.1153385180
 C         -0.0734752795        0.5864467818       -1.4502888133
 C         -0.8292347658       -0.0021037929       -2.4469652248
 C         -1.8260480025       -0.9103108020       -2.1340945511
 C         -2.0515758867       -1.2431942006       -0.8046048538
 N         -3.0639152603       -2.1565952238       -0.4491294231
 S         -4.2505273186       -1.6412134803        0.6140483980
 O         -3.6756056900       -1.3821353623        1.9084111759
 O         -5.2741999647       -2.6602259997        0.5543298382
 C         -4.8575518368       -0.1281425973       -0.1109970462
 C         -4.1760112242        1.0501981102        0.1206682619
 C         -4.6056715711        2.2061853713       -0.5116320860
 C         -5.7032865903        2.1654859960       -1.3576194108
 C         -6.3794052624        0.9747675380       -1.5769927132
 C         -5.9504223897       -0.1859413095       -0.9539008830
 H         -6.4471212730       -1.1327177166       -1.0923866571
 H         -7.2348920819        0.9469802507       -2.2325119849
 H         -6.0335349181        3.0680427969       -1.8471624189
 H         -4.0775317564        3.1305423253       -0.3415986243
 H         -3.3277090174        1.0474402144        0.7852188420
 H         -3.4960561940       -2.6111349708       -1.2416111007
 H         -2.4204020483       -1.3645046280       -2.9126582174
 H         -0.6470283938        0.2557929574       -3.4791189412
 H          0.7013342538        1.2956710720       -1.6967778869
 C          0.5263899970        0.8765794650        0.9951813851
 H          0.1908350377        0.4281550724        1.9405895388
 C          0.2878693119        2.3726404755        1.0683037241
 C         -0.9318810342        2.8781807890        1.7754934089
 C          0.4233109744        3.0678953730        2.3876025031
 H          0.8504755619        4.0591341708        2.4062679189
 H          0.6842244084        2.4645113335        3.2455612905
 H         -1.4392970786        3.7429344090        1.3766515766
 H         -1.5883413177        2.1496467763        2.2293345869
 H          0.6233874064        2.9071740237        0.1899102219
 O          2.5747639666        2.1136075096       -0.7779422691
