  62
        -98.93936945
 C          1.9062610441        0.8129021706        0.2254029026
 C          2.3176990665       -0.2019861464        1.1251697897
 C          2.8690483914       -1.4186829419        0.5198796418
 C          2.8774386927       -1.5501259435       -0.8185389209
 C          3.3873446883       -2.7375367095       -1.5894797287
 C          4.9044250757       -2.7225228720       -1.8238486701
 C          5.7573185083       -3.0147309782       -0.5885829972
 H          5.4119551194       -3.9368546154       -0.1202825950
 H          6.7772118749       -3.1875655877       -0.9375499254
 C          5.7770271375       -1.8844438924        0.4499994764
 H          5.4224857091       -0.9598423019       -0.0117286903
 H          6.8042072790       -1.7058152809        0.7755550410
 C          4.9466936048       -2.1607448880        1.7037384542
 H          5.0019662364       -1.2829118201        2.3528666798
 H          5.3719525769       -3.0078084302        2.2463439371
 C          3.4653213461       -2.4514872221        1.4277320561
 H          3.3488642817       -3.4471565374        0.9999044128
 H          2.9223641217       -2.4127492427        2.3755346814
 H          5.1242586088       -3.4811982439       -2.5783814101
 H          5.1833340982       -1.7508522522       -2.2379217475
 H          3.1044371393       -3.6564091149       -1.0750499283
 H          2.8870795160       -2.7147308393       -2.5600006008
 O          2.3900562932       -0.5907177743       -1.6480618727
 C          1.9094216070        0.6168682304       -1.1561184817
 O          1.5250215372        1.4009502841       -2.0438822563
 O          2.2305105863       -0.0937927890        2.3787750492
 C          1.3602383634        2.0994649483        0.8154498438
 C          0.0672431751        2.4821328534        0.1390346494
 C         -0.1817563541        3.7356293389       -0.4029267021
 C         -1.4042913956        4.0121189522       -0.9908129376
 C         -2.3984729313        3.0546705301       -1.0465710250
 C         -2.1545042537        1.7905246584       -0.5177624920
 C         -0.9346308584        1.5203983964        0.0773959102
 H         -0.7543075931        0.5371903504        0.4905715562
 N         -3.1282738218        0.7830554283       -0.6092442140
 S         -3.1299469106       -0.4921975623        0.4872640334
 O         -3.0385523751        0.0083651296        1.8414783156
 O         -2.1311134036       -1.4543489571        0.0902280218
 C         -4.7598658486       -1.1523851563        0.1918588961
 C         -4.9459964369       -2.0240874263       -0.8643235216
 C         -6.2191032874       -2.5113325344       -1.1144896693
 C         -7.2792934581       -2.1199958751       -0.3102563829
 C         -7.0770887965       -1.2459078231        0.7472080284
 C         -5.8064748608       -0.7544773492        1.0024405177
 H         -5.5990554210       -0.0810827739        1.8184168607
 H         -7.9022445498       -0.9461896994        1.3728392888
 H         -8.2687167436       -2.5012746750       -0.5072919200
 H         -6.3790758414       -3.1935390430       -1.9337528081
 H         -4.0900167333       -2.3054954439       -1.4556172293
 H         -4.0563839523        1.1355573347       -0.7962174682
 H         -3.3493498135        3.2717999002       -1.5085501056
 H         -1.5842547185        4.9899090585       -1.4113918344
 H          0.5855686890        4.4917419810       -0.3837468453
 H          1.1188551828        1.8366121733        1.8607092978
 C          2.3739730168        3.2330575704        0.8773561427
 C          3.8465640142        2.9542381929        0.8941380824
 C          3.2216554427        3.6072538019       -0.3001257936
 H          3.4242756178        4.6538424298       -0.4743102696
 H          3.1008513389        3.0279556804       -1.2019501222
 H          4.4729000485        3.5500875824        1.5410488446
 H          4.1621898263        1.9243495618        0.8089988879
 H          2.0361456506        4.0452761697        1.5137316275
