  62
        -98.93653188
 C         -1.6078954135       -0.8041552438       -0.3132358517
 C         -2.9202469475       -1.3372420724       -0.4014643865
 C         -3.9669281678       -0.6309777825        0.3464894491
 C         -3.6316081696        0.4423594543        1.0847977711
 C         -4.6003255119        1.2877637391        1.8588891789
 C         -5.1267012157        2.4517429398        1.0075923060
 C         -5.6265929572        2.0302138042       -0.3741676779
 H         -6.0020101829        2.9269720929       -0.8718807939
 H         -4.7818615448        1.6655256297       -0.9629255345
 C         -6.7268186498        0.9599619726       -0.3524409930
 H         -7.1798542081        0.9135252266        0.6385301713
 H         -7.5119606372        1.2496659407       -1.0540739475
 C         -6.2587828304       -0.4381988882       -0.7604555540
 H         -5.7211895590       -0.3822585906       -1.7104380821
 H         -7.1437273972       -1.0596270061       -0.9220155754
 C         -5.3684418067       -1.1656732812        0.2548340071
 H         -5.8480947747       -1.1585445534        1.2358579958
 H         -5.2718526841       -2.2050246250       -0.0725954994
 H         -5.9344061973        2.9415265727        1.5545983284
 H         -4.3191971280        3.1748622686        0.8730451191
 H         -5.4282472821        0.6664052673        2.1949907996
 H         -4.0835273336        1.6916422751        2.7309605486
 O         -2.3621516082        0.9074496773        1.1716538987
 C         -1.3161596408        0.3123356167        0.4732021508
 O         -0.2216851047        0.8723818481        0.6531376717
 H          1.8300432766       -0.2455996813       -0.2290542841
 C          1.6868988782       -1.2311756638        0.1729892410
 C          0.5723205663       -1.9838436108       -0.1624627936
 C          0.4123650166       -3.2270933076        0.4506236653
 C          1.3358317388       -3.7017561648        1.3609787140
 C          2.4609541435       -2.9567566543        1.6677800105
 C          2.6310480046       -1.7162083081        1.0687833857
 N          3.7496766214       -0.9221557388        1.3610282127
 S          4.4962284189       -0.0818728712        0.1229894210
 O          4.3926685505       -0.7939481415       -1.1301825337
 O          5.8429496213        0.1506515908        0.6042802947
 C          3.6504325299        1.4793731009        0.0265381730
 C          3.2917189834        2.1161194157        1.1972598559
 C          2.6708686024        3.3516090488        1.1217992934
 C          2.4280051902        3.9297668777       -0.1145940804
 C          2.7992149756        3.2794233303       -1.2804456659
 C          3.4171220105        2.0409049934       -1.2124970753
 H          3.7048692406        1.4933285511       -2.0959102897
 H          2.6035400337        3.7264564883       -2.2420005258
 H          1.9408562824        4.8907267492       -0.1696395972
 H          2.3726936967        3.8571718807        2.0262123639
 H          3.4895283655        1.6353360543        2.1407666366
 H          4.4185579147       -1.3370715429        1.9929189625
 H          3.1949943671       -3.3272383636        2.3674524343
 H          1.1870312207       -4.6644420131        1.8264003566
 H         -0.4608396268       -3.8180734996        0.2106100187
 C         -0.5196118945       -1.5309133446       -1.0963248707
 H         -1.0233770346       -2.4470528408       -1.4427177680
 C         -0.1517762457       -0.7794457843       -2.3710854223
 C          0.5004635358        0.5684841806       -2.4276335129
 C          1.2351575105       -0.6407614923       -2.9238433015
 H          1.3605995455       -0.7519444966       -3.9913995792
 H          2.0709467277       -1.0129821355       -2.3511906842
 H          0.7980635983        1.0318288759       -1.5012750388
 H          0.1263505167        1.2740069888       -3.1564441577
 H         -0.9322306940       -0.9312107860       -3.1136254420
 O         -3.2034521227       -2.3633033606       -1.0781157736
