  62
        -98.94453765
 C          1.6021036057        1.6529271857       -0.6361736485
 C          1.5089330698        0.4218561545       -1.3306658416
 C          2.6266217866       -0.5160060006       -1.1308927666
 C          3.6402803616       -0.1817977443       -0.3146836481
 C          4.8137107945       -1.0598813946        0.0084416332
 C          4.5530189689       -1.9123112559        1.2574240610
 C          3.2195395625       -2.6603957676        1.2354608133
 H          3.1730243734       -3.2677096722        2.1426956223
 H          2.3946597779       -1.9455809379        1.2935421578
 C          3.0123246241       -3.5598540501        0.0091545059
 H          3.9709340011       -3.7660449517       -0.4698560091
 H          2.6026637434       -4.5149876035        0.3447980017
 C          2.0328714853       -2.9935332665       -1.0205777379
 H          1.1246864136       -2.6704481036       -0.5050240533
 H          1.7559963921       -3.7977234958       -1.7082364568
 C          2.5604106327       -1.8258279029       -1.8647076161
 H          3.5365986136       -2.0841780402       -2.2815014501
 H          1.8627677377       -1.6713595188       -2.6932276374
 H          4.5626318282       -1.2580660637        2.1324616631
 H          5.3701407263       -2.6293331349        1.3604470321
 H          5.6791263003       -0.4201866751        0.1917350516
 H          5.0238368806       -1.7028840827       -0.8442315081
 O          3.6947019742        1.0054577327        0.3429803693
 C          2.6771878639        1.9344574109        0.2109961217
 O          2.8467586301        2.9746732081        0.8803182530
 O          0.5618675368        0.1025458604       -2.0934078581
 C          0.5328722140        2.7350234785       -0.6840865305
 C         -0.4146552236        2.5603850396        0.4761890995
 C         -0.7593069830        3.6260401524        1.2977297499
 C         -1.5981282331        3.4287992454        2.3810576027
 C         -2.1002479062        2.1724742025        2.6655976312
 C         -1.7639893779        1.0980023554        1.8458666105
 C         -0.9385700263        1.3052712880        0.7514867539
 H         -0.6627007521        0.4717347475        0.1295917807
 N         -2.2693800461       -0.1743935197        2.1110007949
 S         -1.7885694990       -1.5967304283        1.3846918447
 O         -2.2876618871       -2.6186007377        2.2817445408
 O         -0.3705627090       -1.6218817667        1.1247433609
 C         -2.7533050566       -1.6338764908       -0.1119401220
 C         -2.1958553901       -1.3687413290       -1.3451211525
 C         -3.0162387903       -1.3859304130       -2.4640402548
 C         -4.3666712765       -1.6652179938       -2.3348456813
 C         -4.9109918859       -1.9340237578       -1.0872523494
 C         -4.0991350128       -1.9176797550        0.0334942437
 H         -4.4765320961       -2.1335333999        1.0194325363
 H         -5.9616581948       -2.1541027543       -0.9869445733
 H         -4.9972094046       -1.6747973636       -3.2100156750
 H         -2.5843334770       -1.1741088820       -3.4290435424
 H         -1.1451077827       -1.1404197179       -1.4382467668
 H         -2.7490042995       -0.3004860740        2.9871827950
 H         -2.7400198848        2.0170828321        3.5207190639
 H         -1.8550045887        4.2610801198        3.0188205682
 H         -0.3465310755        4.6042848623        1.0995114382
 H          1.0706157705        3.6845184293       -0.5274063675
 C         -0.1814994636        2.8363791764       -2.0235685916
 C         -1.5811173529        2.3593534382       -2.2524212427
 C         -1.2930636784        3.8280488461       -2.2031818943
 H         -1.3342925703        4.3971327167       -3.1194622212
 H         -1.6195227742        4.3711907171       -1.3290850595
 H         -1.8004037819        1.9017932422       -3.2045322936
 H         -2.1116798421        1.9121969979       -1.4260889011
 H          0.5061484399        2.7204336138       -2.8546661329
