  62
        -98.94292142
 C         -2.0417604398       -0.9186067200        0.4766883500
 C         -2.7311534298        0.1406120695        1.1241774107
 C         -4.1600903099        0.2701627095        0.8234075109
 C         -4.7477086098       -0.6133890601       -0.0032427596
 C         -6.2028287699       -0.6400777600       -0.3847678495
 C         -6.5637201101        0.3041305306       -1.5396141589
 C         -6.5631691302        1.7922511404       -1.1876712780
 H         -7.1780884402        1.9555820598       -0.3020829679
 H         -7.0405104803        2.3179247008       -2.0170303777
 C         -5.1666619303        2.3893927804       -0.9640085978
 H         -5.0861270204        3.3388179108       -1.4981891172
 H         -4.4117101402        1.7213399508       -1.3852387482
 C         -4.8208433602        2.6637722096        0.4997541324
 H         -5.4863690003        3.4341006493        0.8958733129
 H         -3.7980011303        3.0472858497        0.5442794825
 C         -4.9040490500        1.4314112490        1.4099659816
 H         -5.9456662399        1.1654082388        1.5892225815
 H         -4.4354172199        1.6784991285        2.3658342317
 H         -7.5660660101        0.0338426007       -1.8797451490
 H         -5.8723907801        0.1252979612       -2.3662953691
 H         -6.8137000998       -0.4015650706        0.4863947907
 H         -6.4236808298       -1.6635489199       -0.6952419601
 O         -4.0612735698       -1.6281484297       -0.5867031803
 C         -2.6964858497       -1.7947246696       -0.3898918605
 O         -2.2195897796       -2.7474597192       -1.0364321411
 O         -2.1756815499        0.9367931591        1.9287233711
 C         -0.5608434897       -1.0487254700        0.7865115498
 C          0.2996603201       -0.3981718893       -0.2704369699
 C          0.2318489301       -0.7838383685       -1.6057840701
 C          1.0351197899       -0.1747921578       -2.5520167898
 C          1.9370377098        0.8090744821       -2.1844343493
 C          2.0191916899        1.1947714213       -0.8527066590
 C          1.1945522200        0.5980697706        0.0918602507
 H          1.2632489401        0.9195536000        1.1201271409
 N          2.9392365398        2.1779379311       -0.4365003685
 S          4.0785938499        1.7324947806        0.7087217711
 O          3.4271030501        1.4189393097        1.9534449610
 O          5.0320327598        2.8185313407        0.7336221117
 C          4.8369445301        0.2728928611        0.0174309902
 C          4.2173247102       -0.9501078791        0.1825616695
 C          4.7670621403       -2.0650338286       -0.4303178712
 C          5.9193659102       -1.9400876780       -1.1910161812
 C          6.5314542701       -0.7051975879       -1.3440595305
 C          5.9830371700        0.4148053517       -0.7404980798
 H          6.4259955299        1.3935987018       -0.8301905292
 H          7.4292794200       -0.6116011074       -1.9334569605
 H          6.3424000303       -2.8112869977       -1.6657889618
 H          4.2884729704       -3.0240179488       -0.3132023918
 H          3.3233450603       -1.0145593896        0.7808983695
 H          3.4002178397        2.6505644916       -1.2018589383
 H          2.5690223397        1.2785658226       -2.9232111190
 H          0.9659440599       -0.4767754372       -3.5860006600
 H         -0.4619793799       -1.5588303784       -1.8929720705
 H         -0.4162976297       -0.4857376006        1.7192724301
 C         -0.1095525295       -2.4775729401        1.0205358789
 C          1.0717464006       -2.7278309405        1.9074926087
 C         -0.3061875094       -3.0931554510        2.3715078185
 H         -0.5756577692       -4.1370104910        2.4268991279
 H         -0.7650736394       -2.4831751815        3.1363154289
 H          1.7526986006       -3.5242426603        1.6493260581
 H          1.5458197305       -1.8724893107        2.3676622891
 H         -0.2421640795       -3.1181502996        0.1585855185
