  62
        -98.93675098
 C         -1.1840163675       -0.7459131666        0.6747472222
 C         -1.9302749276       -0.5210502594       -0.5069045049
 C         -2.8925462940        0.5963422810       -0.4680441942
 C         -2.9530081244        1.3843776134        0.6176600417
 C         -3.8165690194        2.5983028480        0.8548101905
 C         -5.2810141976        2.5280729567        0.4014784979
 C         -5.9285268747        1.1397788687        0.5109497268
 H         -5.2861718294        0.4726820828        1.0882941514
 H         -6.8728440982        1.2309415787        1.0507364626
 C         -6.2251911391        0.5096147540       -0.8519497924
 H         -6.9868886042       -0.2630142769       -0.7230480011
 H         -6.6441202652        1.2758685093       -1.5077712271
 C         -5.0307357342       -0.1439361402       -1.5459405013
 H         -5.3476794826       -0.4482469345       -2.5462630368
 H         -4.7441206674       -1.0531361010       -1.0103720645
 C         -3.7765456396        0.7365162273       -1.6737812505
 H         -3.1891346979        0.3685644102       -2.5197529949
 H         -4.0390612132        1.7747741397       -1.8624592328
 H         -5.8347422011        3.2384499736        1.0178108595
 H         -5.3607069117        2.8776328990       -0.6269149197
 H         -3.7751455851        2.7693297105        1.9335197969
 H         -3.3318409604        3.4550679771        0.3765817049
 O         -2.1484757713        1.1872763870        1.7009658013
 C         -1.2479172180        0.1381191869        1.7526491241
 O         -0.5627374694        0.1039352228        2.7956288534
 H          0.9881709908        0.3020697139       -0.2061777952
 C          1.3016385631       -0.5733451016       -0.7539529393
 C          0.7672595233       -1.8110080663       -0.4204205945
 C          1.1443761978       -2.9176650248       -1.1689896099
 C          2.0304483928       -2.7754768337       -2.2237117815
 C          2.5737455234       -1.5437487260       -2.5399333202
 C          2.1979757112       -0.4288663942       -1.7982633121
 N          2.7141160381        0.8439352781       -2.0820584193
 S          2.9350146054        1.9504264997       -0.8515350157
 O          1.6711462623        2.5084311933       -0.4371606248
 O          3.8905733857        2.8935778228       -1.3933351485
 C          3.6928807613        1.0273411528        0.4746744637
 C          4.9731255029        0.5511818680        0.2642091220
 C          5.5824401198       -0.2020659718        1.2535106569
 C          4.9024263741       -0.4712045507        2.4319906485
 C          3.6214917953        0.0185383042        2.6312963432
 C          3.0081998996        0.7769216625        1.6459194866
 H          2.0099182430        1.1650712910        1.7797046803
 H          3.0838159852       -0.1866348047        3.5435572967
 H          5.3724691423       -1.0630266033        3.2014068082
 H          6.5811606769       -0.5788527326        1.1032508475
 H          5.4732788603        0.7907913672       -0.6599546267
 H          3.4581756451        0.8687339863       -2.7629112969
 H          3.2677130962       -1.4389059295       -3.3595224081
 H          2.3079420410       -3.6412164184       -2.8056118990
 H          0.7312408344       -3.8868258680       -0.9432600081
 C         -0.1574929400       -1.8606438454        0.7722067637
 H          0.4488334372       -1.5998329299        1.6566136476
 C         -0.7381746839       -3.2410431157        1.0429235868
 C         -2.1123244952       -3.4064855069        1.6191450218
 C         -1.8350113359       -3.8305802582        0.2097735128
 H         -1.8006741595       -4.8884358620       -0.0069690633
 H         -2.2230971879       -3.2293231768       -0.5964421741
 H         -2.2661604780       -4.1680122937        2.3691954882
 H         -2.6988950839       -2.5126625527        1.7781216811
 H          0.0155722262       -3.9310437481        1.4094075451
 O         -1.8065430843       -1.2056908180       -1.5546220085
