  62
        -98.94392954
 C         -1.7858643171       -0.6375693048        0.5556342188
 C         -3.0623837603       -0.6246651798        1.1666308920
 C         -4.2081905328       -0.5415360082        0.2542609095
 C         -4.0014344359       -0.5052124230       -1.0749157382
 C         -5.0678631281       -0.4440709123       -2.1346774927
 C         -5.5805660232        0.9733813665       -2.4239944670
 C         -6.4698033970        1.5783611097       -1.3368432232
 H         -6.9313536708        2.4722756762       -1.7611852227
 H         -7.2728983333        0.8811567404       -1.0958200245
 C         -5.7235957303        1.9706000631       -0.0539109192
 H         -6.0396259450        2.9677467689        0.2610608307
 H         -4.6518490943        2.0258381470       -0.2591643396
 C         -5.9541499147        1.0281955647        1.1276164324
 H         -7.0036821340        1.0672313377        1.4276155879
 H         -5.3508259522        1.3792190267        1.9689275142
 C         -5.5783959323       -0.4336770408        0.8520918328
 H         -5.5692370589       -0.9701503505        1.8041458235
 H         -6.3177571833       -0.8951744739        0.1978341145
 H         -6.1570802709        0.9286072422       -3.3508852826
 H         -4.7225538070        1.6269321275       -2.5984668417
 H         -5.9042464058       -1.0835848407       -1.8511517260
 H         -4.6206778360       -0.8408234783       -3.0486680512
 O         -2.7588445201       -0.5410122466       -1.6242220951
 C         -1.6214834131       -0.5895405472       -0.8290842610
 O         -0.5527041279       -0.5897837432       -1.4656625687
 O         -3.2343481691       -0.6803902656        2.4143980609
 C         -0.5564141165       -0.7165713582        1.4386878869
 C          0.3618357557        0.4630682646        1.2302078374
 C         -0.1583677651        1.7124001199        0.9063091137
 C          0.6723523312        2.7959475793        0.6900834774
 C          2.0448880012        2.6647062952        0.8090434708
 C          2.5734699477        1.4322876465        1.1621380114
 C          1.7374716128        0.3425150746        1.3711823547
 H          2.1694100603       -0.6099981519        1.6382685982
 N          3.9775088237        1.3027095710        1.2812881579
 S          4.8130524334        1.2328971247       -0.1719660778
 O          6.2108315417        1.1231145253        0.1783102923
 O          4.4367671080        2.3669137695       -0.9746167871
 C          4.2546783688       -0.2893225788       -0.9141191384
 C          3.0026328408       -0.3246480518       -1.4941651404
 C          2.5158649429       -1.5335827510       -1.9664444731
 C          3.2896557224       -2.6785900895       -1.8556686530
 C          4.5502384024       -2.6253646849       -1.2784466480
 C          5.0356325553       -1.4225829979       -0.7922554202
 H          6.0049034724       -1.3362833597       -0.3279005562
 H          5.1490857734       -3.5184749634       -1.1980526575
 H          2.9046425448       -3.6184249766       -2.2199058871
 H          1.5229615482       -1.5633972362       -2.3868659567
 H          2.4155136313        0.5763018759       -1.5691625856
 H          4.2559073321        0.5142346618        1.8503161331
 H          2.7104607392        3.4909569369        0.6207925942
 H          0.2473142580        3.7524982422        0.4250615044
 H         -1.2298807508        1.8247535672        0.8117347485
 H         -0.9382587613       -0.6746906095        2.4705609981
 C          0.1466014098       -2.0449282017        1.2327556413
 C          0.8034972774       -2.7514381900        2.3801798987
 C         -0.4716454706       -3.2852229144        1.8021076923
 H         -0.4376401177       -4.1935435678        1.2199038845
 H         -1.3813933150       -3.1664691671        2.3726169064
 H          1.7158177451       -3.2985372516        2.1944650346
 H          0.7569859849       -2.2835414316        3.3522645030
 H          0.6089149765       -2.1197342205        0.2546591724
