  62
        -98.94356723
 C         -0.9596021797       -0.9446631494        0.9302989513
 C         -1.3478926299       -0.8247198000       -0.4280381887
 C         -2.0298377803        0.4272752996       -0.7859355091
 C         -2.2048492505        1.3884006599        0.1373954406
 C         -2.8523998009        2.7286710396       -0.0862963299
 C         -4.3852172609        2.7041801992       -0.0101810197
 C         -5.0871901409        2.0442960385       -1.1976718293
 H         -6.1475729609        2.2928206782       -1.1211626493
 H         -4.7165776911        2.4809207583       -2.1257188195
 C         -4.9415812104        0.5170520785       -1.2520150888
 H         -5.9138862403        0.0653865882       -1.4607987785
 H         -4.6193050702        0.1467505690       -0.2761577987
 C         -3.9690624704        0.0103974985       -2.3176206387
 H         -4.3488441505        0.2606723380       -3.3107428588
 H         -3.9138429000       -1.0787192015       -2.2436564783
 C         -2.5455143305        0.5669403789       -2.1853040991
 H         -1.8809279104       -0.0053357711       -2.8380837790
 H         -2.5167695209        1.6108667588       -2.4991010995
 H         -4.6807486006        2.2005398294        0.9130096706
 H         -4.7238140712        3.7408656391        0.0530873900
 H         -2.4810447410        3.3899464800        0.6997042199
 H         -2.5394749512        3.1290664694       -1.0516685300
 O         -1.7741939803        1.2553543305        1.4206497906
 C         -1.1387727099        0.0975968209        1.8421328909
 O         -0.7760305398        0.1225688514        3.0350576509
 O         -1.1469216697       -1.7064691603       -1.3015675384
 C         -0.1939030592       -2.1561567590        1.4362603616
 C          0.9454445307       -2.4465809390        0.4891623316
 C          1.2312686411       -3.6993287291       -0.0355474480
 C          2.2935637010       -3.8631215491       -0.9085422980
 C          3.0753195906       -2.7880406390       -1.2891089385
 C          2.7978784703       -1.5297030889       -0.7670718090
 C          1.7595661904       -1.3777088789        0.1343125311
 H          1.5502204001       -0.3995180688        0.5431827008
 N          3.5608243899       -0.4027125788       -1.1169316395
 S          2.7643288394        1.0398598509       -1.4242322199
 O          1.4768148694        0.8296564402       -2.0420348397
 O          3.7176896691        1.8127517109       -2.1948650703
 C          2.5689087394        1.8056905314        0.1700646998
 C          3.6635957795        1.9010364720        1.0059015497
 C          3.5093297094        2.5151241524        2.2384482695
 C          2.2730644393        3.0217696922        2.6103176594
 C          1.1854715492        2.9240543215        1.7564657196
 C          1.3338473993        2.3121106011        0.5225301698
 H          0.5102200692        2.1975074906       -0.1666722201
 H          0.2199816691        3.3036214614        2.0509855496
 H          2.1512861193        3.4926984425        3.5728990093
 H          4.3506744095        2.5936859830        2.9079432193
 H          4.6064564895        1.4929358722        0.6822012097
 H          4.2818884899       -0.5764229788       -1.8027616395
 H          3.8866384106       -2.9153433290       -1.9898072086
 H          2.5039498213       -4.8412774892       -1.3141492177
 H          0.6115016514       -4.5436455392        0.2177947324
 H          0.2475592308       -1.8268171985        2.3920579414
 C         -1.0528422788       -3.3706449791        1.7557576922
 C         -2.5196129888       -3.2309483195        2.0320805623
 C         -2.0545163188       -3.9228849598        0.7880172325
 H         -2.1698870384       -4.9954237599        0.7266806329
 H         -2.1628362590       -3.4154860402       -0.1570757377
 H         -2.9513904585       -3.8242223893        2.8242765726
 H         -2.9546304991       -2.2463621397        1.9366403020
 H         -0.5207681485       -4.0927216188        2.3675267424
