  62
        -98.94401697
 C          2.1215947996        0.8728820252        0.0292247445
 C          2.5262802733       -0.4727890088       -0.1427836746
 C          3.8400300053       -0.8168979915        0.4168708963
 C          4.5561580914        0.1151648016        1.0712657305
 C          5.8987334992       -0.0912071133        1.7185809296
 C          7.0843011914        0.0329422329        0.7518063147
 C          7.2507952305       -1.1310316241       -0.2258614814
 H          8.2329043771       -1.0213471439       -0.6901147665
 H          7.2557485866       -2.0707389569        0.3273612134
 C          6.1867592340       -1.1874427612       -1.3308382498
 H          6.6711212020       -1.3628941125       -2.2941227171
 H          5.6805686089       -0.2217403342       -1.3984625351
 C          5.1375265971       -2.2837536883       -1.1451038625
 H          4.4158422638       -2.2095371462       -1.9625790690
 H          5.6158851933       -3.2638054579       -1.2071722863
 C          4.3640791626       -2.2006537926        0.1775252274
 H          3.5056742060       -2.8744535797        0.1171177439
 H          4.9988619428       -2.5171265532        1.0049649187
 H          7.9913948013        0.1038104619        1.3564567959
 H          6.9835490347        0.9663798616        0.1933067484
 H          5.9966052324        0.6819006310        2.4837790696
 H          5.9249375622       -1.0666019856        2.2052666349
 O          4.1155825348        1.3900403852        1.2425482140
 C          2.9023026800        1.8026828751        0.7170716614
 O          2.6302225847        3.0012842032        0.9316106140
 H         -1.0901889652       -0.3749041133       -1.5993492078
 C         -1.1925826823       -0.2480906628       -0.5334492889
 C         -0.3251204849        0.5857012768        0.1525847374
 C         -0.4831860228        0.7233790105        1.5295855015
 C         -1.4717077563        0.0309540165        2.2014946269
 C         -2.3253441844       -0.8160876051        1.5156594998
 C         -2.1796205113       -0.9559119248        0.1425930575
 N         -3.0433694103       -1.8099426136       -0.5605044781
 S         -4.6748808124       -1.7717998773       -0.2040509877
 O         -4.9346717473       -2.5313640542        0.9935234398
 O         -5.3341777736       -2.2387597359       -1.4033541402
 C         -5.0450041272       -0.0492525399        0.0800721304
 C         -4.8388526550        0.8387722079       -0.9573280762
 C         -5.0909482390        2.1845044229       -0.7479203805
 C         -5.5410086369        2.6180397768        0.4900061292
 C         -5.7469316049        1.7138621788        1.5199571936
 C         -5.4952847522        0.3663139872        1.3162228690
 H         -5.6410236500       -0.3694918026        2.0902395858
 H         -6.0986399496        2.0536099778        2.4807797396
 H         -5.7331617705        3.6670479952        0.6513174766
 H         -4.9335374429        2.8899690185       -1.5479436486
 H         -4.4953482277        0.4688050723       -1.9098440517
 H         -2.8736940110       -1.8483394898       -1.5541873995
 H         -3.0889768996       -1.3803064147        2.0258144438
 H         -1.5779695816        0.1460246783        3.2695265558
 H          0.1898350449        1.3788444410        2.0658086597
 C          0.7882038912        1.3492466758       -0.5221925727
 H          0.7009473751        2.4046820371       -0.2287705254
 C          0.7724215382        1.2605069566       -2.0333604111
 C         -0.1871499575        2.1018040608       -2.8189630846
 C          1.2770126410        2.4212616761       -2.8343317120
 H          1.8409916582        2.2204712753       -3.7330104399
 H          1.6192848620        3.2897287091       -2.2905224841
 H         -0.8411357677        2.7582448687       -2.2655436791
 H         -0.6287995627        1.6864017503       -3.7122642585
 H          1.0039446124        0.2672041382       -2.3999955836
 O          1.8345856687       -1.3435524235       -0.7320658554
