  62
        -98.94353446
 C          1.8042139122        0.5294068416        0.3543633453
 C          2.9601294470        0.6095462183        1.1661669984
 C          4.2368849987        0.7484921591        0.4533903512
 C          4.2361489255        0.8030807293       -0.8913747571
 C          5.4676466415        0.8891629344       -1.7449672173
 C          5.9717204261       -0.5071711143       -2.1357945480
 C          6.0900123288       -1.4734603582       -0.9571449132
 H          5.0919142292       -1.6790727442       -0.5634273270
 H          6.4813693271       -2.4157913745       -1.3466708597
 C          6.9914919121       -0.9777098745        0.1821982938
 H          7.6394946022       -1.7979628875        0.4982990409
 H          7.6368383945       -0.1758266133       -0.1781598073
 C          6.2385134400       -0.5009853993        1.4256699942
 H          6.9623020335       -0.3812195285        2.2363004299
 H          5.5236620546       -1.2668764603        1.7374610708
 C          5.4879862160        0.8291222442        1.2822774286
 H          5.1657750287        1.1374961919        2.2812546698
 H          6.1631236362        1.5917284905        0.8889093749
 H          6.9442717423       -0.4003118213       -2.6196721008
 H          5.2761021217       -0.9358726764       -2.8608577190
 H          6.2423914122        1.4279955632       -1.2029966100
 H          5.2190110177        1.4426396384       -2.6519296221
 O          3.1034522641        0.7380513490       -1.6364976296
 C          1.8604563100        0.5903257039       -1.0382020577
 O          0.9080283131        0.5307419934       -1.8374925018
 O          2.9257696876        0.5624270875        2.4259282627
 C          0.4488206506        0.3756128643        1.0183445277
 C         -0.2397867009       -0.8784326160        0.5399659548
 C          0.4902137653       -2.0613511850        0.4510092037
 C         -0.1039473656       -3.2285504986        0.0142809132
 C         -1.4454641432       -3.2475231553       -0.3254529312
 C         -2.1877741273       -2.0781849894       -0.2256226781
 C         -1.5836839294       -0.9031532801        0.2022819137
 H         -2.1779992301       -0.0077738614        0.2728149252
 N         -3.5455803031       -2.0603469626       -0.5739143633
 S         -4.6354888079       -1.1712850202        0.3295359946
 O         -4.2721910745       -1.1415832797        1.7270234820
 O         -5.9231771238       -1.7585617476        0.0237490724
 C         -4.5808105300        0.4706370013       -0.3563126028
 C         -4.4267364504        0.6284189243       -1.7192357351
 C         -4.4313420040        1.9091617674       -2.2483443550
 C         -4.5980662740        3.0035077423       -1.4132440442
 C         -4.7581855517        2.8278183499       -0.0475864650
 C         -4.7498948076        1.5495807210        0.4887506818
 H         -4.8592420259        1.3674703412        1.5461424514
 H         -4.8876496973        3.6801684766        0.6006111926
 H         -4.6014983357        3.9989572667       -1.8286763002
 H         -4.3028768383        2.0497202391       -3.3095840750
 H         -4.2952735110       -0.2420110535       -2.3399921627
 H         -3.9281564223       -2.9518844788       -0.8527677286
 H         -1.9124923852       -4.1589870023       -0.6666985430
 H          0.4789170376       -4.1347062066       -0.0570353139
 H          1.5367344008       -2.0507745354        0.7243281646
 H          0.6596753946        0.2578357026        2.0923722873
 C         -0.3741450999        1.6316020405        0.8208820635
 C         -1.3859930943        2.0457423194        1.8457086549
 C         -0.1079535411        2.8143991216        1.7012940476
 H         -0.1455210368        3.8010366523        1.2649635355
 H          0.6484480313        2.7024677330        2.4644288290
 H         -2.3009502349        2.5058313765        1.5046028969
 H         -1.5087491228        1.4134540327        2.7124147585
 H         -0.5949399950        1.8228044727       -0.2235345275
