  62
        -98.94485308
 C         -1.9272198628       -0.1974480205        0.0894802246
 C         -2.9650211585       -1.0391291178        0.5572971932
 C         -4.2718696401       -0.3993437760        0.7556967453
 C         -4.4006848374        0.9188005690        0.5177625036
 C         -5.6853684112        1.6869300214        0.6270222817
 C         -6.4309093180        1.7139272469       -0.7146464315
 C         -6.5742581049        0.3398786197       -1.3693175284
 H         -5.5843023223       -0.0241613635       -1.6538258812
 H         -7.1426803249        0.4772281495       -2.2917945697
 C         -7.2684819937       -0.7117740137       -0.4925826146
 H         -7.9977116842       -1.2492222423       -1.1024575562
 H         -7.8182015781       -0.2196610661        0.3105105186
 C         -6.3286887912       -1.7606591716        0.1049428524
 H         -5.7094445309       -2.1900630830       -0.6866370629
 H         -6.9394131033       -2.5682780418        0.5171967131
 C         -5.4046053195       -1.2680996139        1.2258701393
 H         -4.9387924586       -2.1464588715        1.6821008448
 H         -5.9930227717       -0.7556553552        1.9895521850
 H         -5.8842627659        2.3647846250       -1.4011028923
 H         -7.4197273050        2.1464475869       -0.5515346534
 H         -6.3108294402        1.2328443711        1.3930937441
 H         -5.4497070560        2.7107534978        0.9222534400
 O         -3.3732593968        1.7012536329        0.0993691391
 C         -2.1151500474        1.1655474583       -0.1393173321
 O         -1.2747257779        1.9926072175       -0.5400717323
 H          1.6949973841        0.6494785220       -0.9047314575
 C          1.5519899183        0.5766271460        0.1595954017
 C          0.4726589530       -0.1136190383        0.6861218741
 C          0.3180764395       -0.1567621323        2.0705048476
 C          1.2120457042        0.4872406299        2.9020844732
 C          2.2866028851        1.1807173992        2.3717774563
 C          2.4521894241        1.2288995778        0.9934723321
 N          3.5203529714        1.9471719797        0.4334245972
 S          4.4259067398        1.3176182820       -0.8203858981
 O          5.5975959108        2.1635157674       -0.8776692631
 O          3.6395981890        1.2339109543       -2.0238234880
 C          4.8847281671       -0.3118394987       -0.2594265738
 C          4.1183969493       -1.4010255877       -0.6208392365
 C          4.4522959590       -2.6491242912       -0.1185923263
 C          5.5386476839       -2.7856495215        0.7314836600
 C          6.3010309204       -1.6815045377        1.0821408648
 C          5.9701901812       -0.4309241870        0.5869809009
 H          6.5421105143        0.4511393001        0.8254692652
 H          7.1484894409       -1.7916858562        1.7393758135
 H          5.7936566019       -3.7589637447        1.1200406550
 H          3.8616975034       -3.5087106939       -0.3927806808
 H          3.2838390079       -1.2576953471       -1.2867080709
 H          4.1155136350        2.4033018379        1.1091970850
 H          2.9821730023        1.6932824407        3.0188004509
 H          1.0750294826        0.4496532293        3.9722548469
 H         -0.5247818847       -0.6947768046        2.4825936206
 C         -0.5587026259       -0.8040348520       -0.1699103740
 H         -0.6392235008       -1.8490638565        0.1636759483
 C         -0.2470084197       -0.7910273335       -1.6508561816
 C          0.6675580457       -1.8245233297       -2.2345860998
 C         -0.8032604299       -1.8795528893       -2.5172956514
 H         -1.1511067120       -1.6237115899       -3.5069598468
 H         -1.3885343812       -2.6478959000       -2.0333481147
 H          1.0748693990       -2.5644827955       -1.5620242538
 H          1.3339987180       -1.5303486957       -3.0322205732
 H         -0.2207330687        0.2092574412       -2.0693318662
 O         -2.8043578620       -2.2655316318        0.7992558235
