  62
        -98.94472972
 C         -1.5168322505       -1.7633267393       -0.4644068695
 C         -1.5450326105       -0.5896306590       -1.2587696990
 C         -2.7529910600        0.2434442715       -1.1308334380
 C         -3.7306394097       -0.1242658385       -0.2852990976
 C         -4.9839367492        0.6582072120       -0.0222032265
 C         -4.8029200681        1.6260740614        1.1548093637
 C         -3.5476830378        2.4941822709        1.0597917334
 H         -3.5537299070        3.1701234106        1.9182093736
 H         -2.6579669080        1.8671883605        1.1595258026
 C         -3.4354980882        3.3133515514       -0.2332676164
 H         -4.4120862185        3.3871046020       -0.7146836358
 H         -3.1205528977        4.3269995912        0.0237656938
 C         -2.4104234190        2.7699674514       -1.2304160472
 H         -2.2279335191        3.5398947116       -1.9856377870
 H         -1.4666472888        2.5888743408       -0.7092528978
 C         -2.8185545600        1.4887289418       -1.9694922274
 H         -2.1089646805        1.3375847818       -2.7884201979
 H         -3.8160480102        1.6127026824       -2.3975742068
 H         -5.6847510078        2.2674023918        1.2115451345
 H         -4.7462122178        1.0435610610        2.0774302235
 H         -5.7828852194       -0.0455169278        0.2186393537
 H         -5.2568341795        1.2094767324       -0.9200582462
 O         -3.6686072697       -1.2542480388        0.4658750620
 C         -2.5623426701       -2.0837359492        0.4052786910
 O         -2.6294271401       -3.0791673595        1.1560485006
 O         -0.6303970308       -0.2392798491       -2.0468908694
 C         -0.3455416609       -2.7320981198       -0.4345024505
 C          0.6282042799       -2.3612732807        0.6576234991
 C          1.2521832399       -3.3394103012        1.4237730383
 C          2.1427813607       -2.9852387020        2.4217821979
 C          2.4193001714       -1.6554158922        2.6814913383
 C          1.7853725413       -0.6671851116        1.9339445791
 C          0.9092504006       -1.0289155609        0.9209065994
 H          0.4154937806       -0.2580276905        0.3543025300
 N          2.0009885421        0.6817077581        2.2220538095
 S          1.6962129920        1.9468555387        1.1808001101
 O          2.1967118129        3.0994688382        1.9004340003
 O          0.3026707918        1.9822442394        0.8211991209
 C          2.7430406911        1.6582167388       -0.2329967306
 C          2.2313963402        1.2068292295       -1.4313967405
 C          3.1058890595        0.9942530395       -2.4878200111
 C          4.4621509897        1.2263071489       -2.3297392217
 C          4.9599563706        1.6792882682       -1.1165194119
 C          4.0940202813        1.8986082882       -0.0594140613
 H          4.4354555220        2.2709762776        0.8927707687
 H          6.0153326507        1.8624853277       -0.9942685824
 H          5.1340158391        1.0554399889       -3.1560751422
 H          2.7114794388        0.6432796801       -3.4278075610
 H          1.1750677701        1.0144403400       -1.5401748899
 H          2.7229870926        0.8857378376        2.8944758091
 H          3.1026923119       -1.3791427528        3.4695733380
 H          2.6221197607       -3.7528438124        3.0101156674
 H          1.0182444794       -4.3793741311        1.2498318180
 H         -0.7811219111       -3.7076386097       -0.1627098307
 C          0.3316652983       -2.8990236696       -1.7881889210
 C          1.6781263283       -2.3295656000       -2.1056491415
 C          1.5150117778       -3.8087090800       -1.9404929420
 H          1.5687366970       -4.4370626597       -2.8166015623
 H          1.9208628581       -4.2588069005       -1.0479181024
 H          1.8292819079       -1.9284487097       -3.0953592515
 H          2.1916093290       -1.7794261005       -1.3319971516
 H         -0.3904362622       -2.9048739290       -2.5979207206
