  62
        -98.94941445
 C         -1.3582561920       -1.5957364271        0.2703394649
 C         -1.6202029494       -0.6091506196        1.2510439447
 C         -2.7949119692        0.2389980244        1.0198093489
 C         -3.5432171748        0.0371334184       -0.0797163167
 C         -4.7516974115        0.8436964163       -0.4555004696
 C         -4.3834105633        2.0164371845       -1.3738139896
 C         -3.2174764130        2.8656034211       -0.8660623692
 H         -2.2925284636        2.2842472036       -0.9026003418
 H         -3.0913815805        3.6950614393       -1.5661644368
 C         -3.4016953373        3.4221385202        0.5524964736
 H         -3.0839728082        4.4669758377        0.5576158784
 H         -4.4570923222        3.4003158914        0.8288440599
 C         -2.5754259732        2.7029263598        1.6206733141
 H         -1.5439067918        2.6113164803        1.2684039928
 H         -2.5632538543        3.3253914286        2.5198662030
 C         -3.0824030512        1.3131815769        2.0297368966
 H         -4.1504885865        1.3617255662        2.2529848708
 H         -2.5535342193        1.0193398992        2.9412838774
 H         -4.1126011196        1.6180185273       -2.3544161827
 H         -5.2661919135        2.6475740660       -1.4952740074
 H         -5.4490885332        0.1894290317       -0.9820142320
 H         -5.2291108633        1.2141198007        0.4496487693
 O         -3.2604031331       -0.9168844625       -1.0029865879
 C         -2.1390486617       -1.7254626575       -0.8776547657
 O         -1.9623963298       -2.5059630803       -1.8325596302
 O         -0.8987819771       -0.4448428306        2.2729317576
 C         -0.1142019580       -2.4523191409        0.4160213792
 C          0.9113572554       -2.0547761995       -0.6195871823
 C          1.7509249462       -2.9563460817       -1.2616996814
 C          2.6855548376       -2.5066385481       -2.1792687112
 C          2.8226232030       -1.1586698083       -2.4589210329
 C          1.9902663326       -0.2484670175       -1.8172413937
 C          1.0457001051       -0.7054947377       -0.9140534022
 H          0.3878063279        0.0086452708       -0.4457501455
 N          2.0797925595        1.1296848281       -2.0609041717
 S          1.8076657740        2.2105511493       -0.8118167666
 O          0.4040916590        2.2758300602       -0.4948524259
 O          2.4051666035        3.4439027424       -1.2790527059
 C          2.7579942886        1.5693704579        0.5550017754
 C          2.1500786517        0.9536469630        1.6292767829
 C          2.9477542040        0.4267439735        2.6343024163
 C          4.3272620091        0.5230650121        2.5510755677
 C          4.9229405849        1.1530575157        1.4683085930
 C          4.1329833738        1.6783162189        0.4601718340
 H          4.5553867946        2.1873596538       -0.3909701249
 H          5.9962711947        1.2332531795        1.4071960843
 H          4.9401223100        0.1079271139        3.3356038127
 H          2.4750246226       -0.0598719446        3.4726368284
 H          1.0746885129        0.8808299807        1.6814668263
 H          2.8495595630        1.4144178231       -2.6477614509
 H          3.5555917667       -0.8131430913       -3.1715421744
 H          3.3245387833       -3.2181190301       -2.6798292182
 H          1.6681444881       -4.0098998006       -1.0506747766
 H          0.3002727708       -2.1924438743        1.4028161259
 C         -0.4483968148       -3.9283365238        0.4046499330
 C          0.3810476065       -4.8959101460        1.1936955366
 C         -1.0042985270       -4.5522334371        1.6488339752
 H         -1.7826992646       -5.2936852187        1.5498489768
 H         -1.1166785564       -3.9161845133        2.5148700710
 H          0.5538568336       -5.8796650768        0.7839925506
 H          1.2107637627       -4.4995765397        1.7592217693
 H         -0.8577534674       -4.2558078546       -0.5438304395
