  62
        -98.94825334
 C         -1.1785028495       -1.2116893216       -0.0195686998
 C         -1.9229106875       -0.6570314905        1.0482081087
 C         -2.5610487428        0.6392141829        0.7825408240
 C         -2.3960048883        1.2194693435       -0.4201772477
 C         -3.0272433116        2.5145381556       -0.8407271084
 C         -4.3859912349        2.2778920475       -1.5148830727
 C         -5.3138652512        1.3544110435       -0.7257196453
 H         -6.2522813882        1.2846507296       -1.2798665518
 H         -4.8810195117        0.3518475792       -0.6980605854
 C         -5.6015576975        1.8193957157        0.7086695577
 H         -5.3547892445        2.8766057444        0.8130078389
 H         -6.6709957411        1.7153623507        0.9035087621
 C         -4.8732232004        1.0218206544        1.7922660898
 H         -5.0425320764       -0.0469019002        1.6377161140
 H         -5.3086566196        1.2849304347        2.7600193683
 C         -3.3608258285        1.2590813162        1.8930898759
 H         -3.0085876182        0.7868823951        2.8154007442
 H         -3.1577740680        2.3302193628        1.9630717629
 H         -4.2126427755        1.8308740505       -2.4962657285
 H         -4.8709694913        3.2445586199       -1.6617767771
 H         -3.1481749759        3.1523770239        0.0328573843
 H         -2.3610409386        3.0110692311       -1.5482567777
 O         -1.6619502224        0.6631798530       -1.4168098442
 C         -1.0249405535       -0.5594978196       -1.2421203382
 O         -0.3709509635       -0.9415323354       -2.2290421374
 O         -2.0476179613       -1.2198825149        2.1702161425
 C         -0.4812464259       -2.5441958253        0.1820798332
 C          1.0113075181       -2.3732847654        0.0378269212
 C          1.7989553139       -3.1770749243       -0.7756536172
 C          3.1650841729       -2.9686231546       -0.8534457037
 C          3.7708325566       -1.9614769009       -0.1261195593
 C          2.9935056404       -1.1576604183        0.7010998091
 C          1.6265339598       -1.3698560755        0.7781711593
 H          1.0322937479       -0.7439549454        1.4285979118
 N          3.5892281582       -0.1480736027        1.4785406799
 S          2.9204089886        1.3813844525        1.5330550109
 O          3.9592659901        2.2018451945        2.1177303300
 O          1.6609246266        1.3569685205        2.2317015283
 C          2.6832272470        1.8375212694       -0.1721915316
 C          3.7867916154        2.2077253378       -0.9163829883
 C          3.6180987051        2.5090713000       -2.2575048527
 C          2.3573336744        2.4275152938       -2.8300752846
 C          1.2595914843        2.0585388552       -2.0688187114
 C          1.4232044462        1.7595874140       -0.7258306437
 H          0.5944170392        1.4667627456       -0.0996890666
 H          0.2797926833        1.9777131244       -2.5120815235
 H          2.2259021330        2.6533248264       -3.8765188214
 H          4.4673225830        2.8019593246       -2.8536023716
 H          4.7470583989        2.2698142588       -0.4305328072
 H          4.5922212218       -0.0877167151        1.3742438632
 H          4.8361064774       -1.7996233525       -0.1883197500
 H          3.7650937923       -3.5971486586       -1.4935275770
 H          1.3438229258       -3.9652122638       -1.3519899347
 H         -0.6882165855       -2.8256157237        1.2257884792
 C         -1.0698827196       -3.5979087595       -0.7323033937
 C         -1.0342574934       -5.0433591621       -0.3380733891
 C         -2.3307124598       -4.2925276057       -0.3165980156
 H         -3.0705682006       -4.5146133218       -1.0709801044
 H         -2.7523085483       -4.0235787387        0.6412452911
 H         -0.8866365230       -5.7851159817       -1.1083245792
 H         -0.5779223573       -5.2919975570        0.6081358552
 H         -0.9605381010       -3.3480889532       -1.7815008574
