  62
        -98.94648493
 C          1.4226888996        1.5644387794       -0.4238307449
 C          1.2723616108        0.2437960153       -0.9163251748
 C          2.4733269025       -0.6017174556       -0.8510312417
 C          3.6355252953       -0.0961800101       -0.4023013127
 C          4.9601908798       -0.8096583444       -0.3577489397
 C          5.1773673501       -1.6730817781        0.8915045004
 C          4.3437886164       -2.9535191971        0.9436040039
 H          4.4780605230       -3.5130021829        0.0173137644
 H          4.7420043233       -3.5655985083        1.7552505544
 C          2.8482120048       -2.7154119681        1.1926311548
 H          2.4871577756       -3.4023676293        1.9617491420
 H          2.6958064271       -1.7055017713        1.5811909571
 C          1.9516705487       -2.9055568939       -0.0309520199
 H          0.9331292018       -2.6487092267        0.2727123722
 H          1.9644624879       -3.9556764734       -0.3341868741
 C          2.3324426672       -2.0416674356       -1.2408588155
 H          1.5294072458       -2.1085299901       -1.9789021875
 H          3.2552183329       -2.4103905356       -1.6894828887
 H          4.9684936900       -1.0679214294        1.7767220000
 H          6.2341092033       -1.9490144319        0.9182232108
 H          5.0691073132       -1.4277005200       -1.2495719286
 H          5.7285823240       -0.0335601331       -0.3760110626
 O          3.7471264695        1.1850532261        0.0386462921
 C          2.6464150265        2.0238579524        0.0727932359
 O          2.8868447249        3.1547068663        0.5441732300
 O          0.2137440550       -0.2231124162       -1.4120032979
 C          0.2876479807        2.5773693828       -0.3879706901
 C         -0.6356676481        2.3143367352        0.7773537281
 C         -0.7450830244        3.2265389543        1.8207808160
 C         -1.5983618181        2.9803387762        2.8818341761
 C         -2.3521336236        1.8212105659        2.9245781425
 C         -2.2461486543        0.9008810802        1.8875217055
 C         -1.3983766802        1.1560670240        0.8202178572
 H         -1.3043108364        0.4306111084        0.0297439958
 N         -3.0161122097       -0.2702719465        1.8794813373
 S         -2.3919577234       -1.6855023339        1.2358855548
 O         -3.2489939916       -2.7241040029        1.7761117508
 O         -0.9869584170       -1.8308089498        1.5373900631
 C         -2.6821150909       -1.5819898016       -0.5168619055
 C         -3.6754037765       -0.7551953626       -1.0013907124
 C         -3.9073332319       -0.7198637923       -2.3668473083
 C         -3.1530652268       -1.5119101121       -3.2183871437
 C         -2.1669620685       -2.3439574036       -2.7137572119
 C         -1.9279403237       -2.3819520455       -1.3498423305
 H         -1.1590249817       -3.0045949958       -0.9215762305
 H         -1.5765175729       -2.9565129935       -3.3764275513
 H         -3.3307503558       -1.4771671748       -4.2819874081
 H         -4.6715374229       -0.0698999300       -2.7624245765
 H         -4.2367797977       -0.1424984488       -0.3154982004
 H         -3.5564996766       -0.4424360096        2.7143535765
 H         -3.0147672495        1.6266679624        3.7542479994
 H         -1.6738477378        3.6954245641        3.6871192789
 H         -0.1444976850        4.1245345108        1.8020534172
 H          0.7676236397        3.5512899502       -0.2213988417
 C         -0.4907728704        2.6416793181       -1.6887990533
 C         -1.2920194017        3.8700752303       -1.9936836306
 C         -0.0409364983        3.5795475152       -2.7662650767
 H         -0.1281385691        3.2617003953       -3.7942340959
 H          0.8329958482        4.1840686271       -2.5698415242
 H         -2.2419483337        3.7535058580       -2.4917382988
 H         -1.2668179154        4.6751194013       -1.2747945539
 H         -0.8929153938        1.6860103709       -1.9974794039
