  62
        -98.94349619
 C          1.9464454740        0.7819979637        0.5435947383
 C          2.1666136909        0.1479498442       -0.7025245751
 C          2.4819342340       -1.2838638985       -0.6399800164
 C          2.4834902371       -1.9175993159        0.5466080484
 C          2.7481522671       -3.3824795040        0.7677226113
 C          4.2377428832       -3.7437915893        0.8513901193
 C          4.9952897654       -3.6926181474       -0.4759997294
 H          5.9616433292       -4.1731866152       -0.3112420195
 H          4.4598179902       -4.2826516812       -1.2202786057
 C          5.2340397681       -2.2750522312       -1.0142942318
 H          5.0836771839       -1.5503837838       -0.2107522934
 H          6.2716010619       -2.1799698653       -1.3419912508
 C          4.3476877978       -1.8892341453       -2.1985569466
 H          4.5807807895       -2.5267872360       -3.0541073271
 H          4.5750856013       -0.8566567008       -2.4747274933
 C          2.8420551683       -1.9817856255       -1.9167677410
 H          2.3071117492       -1.4812268589       -2.7276065273
 H          2.5272086349       -3.0246166500       -1.8820277883
 H          4.7174731592       -3.0770637094        1.5716555311
 H          4.3035856865       -4.7608758931        1.2445669289
 H          2.2744021892       -3.6419656750        1.7171373843
 H          2.2730629752       -3.9619713973       -0.0244454564
 O          2.2182653544       -1.2806961670        1.7196097842
 C          1.9563621638        0.0792784331        1.7467701964
 O          1.7521068300        0.5411102452        2.8903284350
 H         -0.5613008031        0.7156370198        0.4408136963
 C         -0.6836245603        1.6212147872       -0.1366628590
 C          0.3527413244        2.5443477766       -0.1913004127
 C          0.1679835329        3.7060650212       -0.9304766577
 C         -1.0233575947        3.9267587303       -1.5999519328
 C         -2.0497223314        3.0027216586       -1.5470077742
 C         -1.8722033965        1.8327530236       -0.8148279528
 N         -2.8772626568        0.8524299787       -0.7863948288
 S         -2.9360169046       -0.2758835606        0.4597498759
 O         -2.9125883698        0.3879542088        1.7451349843
 O         -1.9246764612       -1.2790382066        0.2333312978
 C         -4.5509357705       -0.9707901386        0.1617621575
 C         -5.6254284804       -0.5453655086        0.9196808037
 C         -6.8810961265       -1.0709796927        0.6576880923
 C         -7.0406261532       -2.0053043402       -0.3544736556
 C         -5.9525948718       -2.4232762020       -1.1066230328
 C         -4.6943698405       -1.9027772526       -0.8489286063
 H         -3.8179646517       -2.2023981289       -1.3999073687
 H         -6.0796892765       -3.1517612829       -1.8910380450
 H         -8.0185205162       -2.4126823168       -0.5567273828
 H         -7.7277174766       -0.7503961650        1.2429907924
 H         -5.4505110925        0.1768645304        1.7008343393
 H         -3.7919987699        1.2043829055       -1.0316063188
 H         -2.9759414456        3.1749953413       -2.0731401061
 H         -1.1545497710        4.8339135468       -2.1700437453
 H          0.9573871886        4.4379377354       -0.9824790363
 C          1.6149281210        2.2608711576        0.5892517822
 H          1.4141141430        2.4948438860        1.6464375307
 C          2.8025589317        3.0795606079        0.1235093919
 C          3.0758653267        4.4289912745        0.7146057504
 C          3.9582732042        3.2679009203        1.0582318958
 H          4.9591544806        3.2392824273        0.6545654902
 H          3.8716111785        2.8309337411        2.0429648312
 H          3.4758053736        5.2009055306        0.0745026659
 H          2.3985998492        4.7891488454        1.4744415427
 H          3.0267836083        2.9214301553       -0.9250813864
 O          2.1042620099        0.7443400365       -1.8095571598
