  62
        -98.94449611
 C         -2.6495193006       -1.2895751863        0.1191856868
 C         -2.5587427294       -0.2914035405       -0.8811468631
 C         -3.5291009650        0.8092735577       -0.7783279031
 C         -4.4315206871        0.8071567156        0.2191962397
 C         -5.4391984370        1.8903674134        0.4701088930
 C         -4.8848656502        2.9530731261        1.4291201672
 C         -3.4948546170        3.4642312908        1.0493977252
 H         -3.2207954339        4.2326828130        1.7754905422
 H         -2.7712261652        2.6522069726        1.1554200093
 C         -3.3968579541        4.0443904599       -0.3684146944
 H         -4.3936266981        4.2828557687       -0.7415039191
 H         -2.8333608370        4.9788591361       -0.3261227417
 C         -2.6823199138        3.1413682947       -1.3759558725
 H         -1.7180575445        2.8248432913       -0.9676074143
 H         -2.4757175349        3.7310135013       -2.2735076401
 C         -3.4558008433        1.8922729275       -1.8176476475
 H         -4.4562528887        2.1778256747       -2.1492586981
 H         -2.9225559788        1.4568287510       -2.6679536922
 H         -5.5853171765        3.7895167127        1.4594420210
 H         -4.8276572530        2.5201958296        2.4303822602
 H         -5.7152514901        2.3491677362       -0.4771845000
 H         -6.3257730075        1.4377282081        0.9171805911
 O         -4.4965055300       -0.1748909949        1.1534677930
 C         -3.6008948824       -1.2293407917        1.1410024945
 O         -3.7545163499       -2.0429723566        2.0733276489
 H          0.3890570156       -1.7179075982       -1.4812846622
 C          0.6137396012       -1.5678694849       -0.4373410408
 C         -0.3193810714       -1.9176791906        0.5255755632
 C         -0.0184609652       -1.6795440147        1.8639027855
 C          1.1886376143       -1.1115382695        2.2249649119
 C          2.1153305550       -0.7565518649        1.2595199101
 C          1.8159888701       -0.9722303275       -0.0782417015
 N          2.7419941221       -0.5953184815       -1.0670400434
 S          3.3871663611        0.9537131798       -0.9834251872
 O          2.4956252762        1.8727408010       -0.3143635968
 O          3.7572076861        1.2854733690       -2.3421427310
 C          4.8716031623        0.7319339961       -0.0231381117
 C          5.7964750023       -0.1956010356       -0.4613359818
 C          6.9576714539       -0.3809742809        0.2715867200
 C          7.1748488953        0.3618368515        1.4226436960
 C          6.2391381722        1.2926991020        1.8468762182
 C          5.0750382467        1.4824137378        1.1182221868
 H          4.3171021903        2.1912624981        1.4123675872
 H          6.4098091248        1.8702684191        2.7412471480
 H          8.0787852460        0.2147574080        1.9923793296
 H          7.6879630092       -1.1034504296       -0.0555091951
 H          5.5908852442       -0.7489984101       -1.3622835527
 H          2.4210844120       -0.7900299724       -2.0051387926
 H          3.0530701557       -0.3011186445        1.5327447564
 H          1.4100252246       -0.9377554492        3.2671368008
 H         -0.7535675098       -1.9325325751        2.6156505541
 C         -1.6797491751       -2.4613108569        0.1629284157
 H         -2.0207019923       -3.1018938386        0.9868157816
 C         -1.6995719586       -3.2673565294       -1.1187581053
 C         -1.0744613003       -4.6290276527       -1.1346437974
 C         -2.5647142852       -4.4873684708       -1.2007632607
 H         -3.0636078910       -4.7018529050       -2.1340187719
 H         -3.1436452347       -4.7489633795       -0.3270574665
 H         -0.5482390956       -4.9454691448       -2.0222128065
 H         -0.6400332624       -4.9866757505       -0.2134242828
 H         -1.6195995272       -2.6607652254       -2.0119641893
 O         -1.7223082801       -0.3091006416       -1.8232418404
