  62
        -98.94548761
 C          1.8139173235        1.2306817649        0.3544790483
 C          1.6234112180        0.0292855221       -0.3711215111
 C          2.4193253479       -1.1218675660        0.0822851102
 C          3.2397133167       -0.9837601876        1.1397502549
 C          4.1477185200       -2.0566303789        1.6658470318
 C          5.5308169102       -1.9859296694        1.0033185292
 C          5.4817894299       -1.8960986222       -0.5220351816
 H          5.0302390465       -0.9435204958       -0.8084478488
 H          6.5137016794       -1.8823497601       -0.8794185191
 C          4.7202144646       -3.0426565199       -1.2017538750
 H          4.6210079902       -3.8816083554       -0.5118897614
 H          5.3045074370       -3.3929275263       -2.0552182999
 C          3.3390024818       -2.6583505591       -1.7351706139
 H          3.4229603937       -1.7622305562       -2.3549349733
 H          2.9855482635       -3.4696472595       -2.3769768621
 C          2.2596591640       -2.4106824277       -0.6739373806
 H          1.2983361743       -2.3347674645       -1.1901179559
 H          2.2147512920       -3.2595084935        0.0117196122
 H          6.1005958755       -2.8683825031        1.3001628246
 H          6.0509510738       -1.1029053531        1.3820103165
 H          4.2624561643       -1.9143918202        2.7419322425
 H          3.6960997057       -3.0302813414        1.4850824352
 O          3.3702466124        0.1780954626        1.8305741112
 C          2.6684786841        1.3131312619        1.4526246860
 O          2.8799873736        2.3121893619        2.1705284864
 H         -0.3333980328        0.9643766036        1.6593626104
 C         -0.9831470876        1.4121426802        0.9169545024
 C         -0.4334038656        2.2316654535       -0.0599222893
 C         -1.2852877192        2.7991972698       -0.9996667055
 C         -2.6458467295        2.5466285694       -0.9595825655
 C         -3.1863748966        1.7169409532        0.0052784551
 C         -2.3420384275        1.1393816372        0.9451336987
 N         -2.8705413985        0.2671149838        1.9108903631
 S         -4.0107838781       -0.8538458089        1.4159027730
 O         -5.3210662613       -0.2516026466        1.4593311842
 O         -3.8198813242       -1.9938298312        2.2867964005
 C         -3.6112884505       -1.2787883091       -0.2715162893
 C         -4.6072657433       -1.2346090766       -1.2264781449
 C         -4.2963835227       -1.5605431884       -2.5365608403
 C         -2.9980019871       -1.9138275921       -2.8693535852
 C         -2.0093031856       -1.9551301417       -1.8987015959
 C         -2.3166394351       -1.6410374410       -0.5853427846
 H         -1.5576915665       -1.6621069425        0.1809514730
 H         -0.9934900079       -2.2057612530       -2.1580936113
 H         -2.7510415081       -2.1563075390       -3.8908681317
 H         -5.0638660427       -1.5303544241       -3.2930995721
 H         -5.5993318532       -0.9397381246       -0.9248497533
 H         -2.1740606178       -0.1600538087        2.5032698775
 H         -4.2433280018        1.5088656696        0.0491482946
 H         -3.2945833012        2.9969710706       -1.6949195196
 H         -0.8826693361        3.4395213980       -1.7670994957
 C          1.0559715702        2.4813941536       -0.0493083335
 H          1.2699355971        3.2318010840        0.7265159564
 C          1.5809195112        2.9912465447       -1.3772657122
 C          1.6338419211        4.4611626058       -1.6626440545
 C          2.8995830528        3.7020607139       -1.4042269368
 H          3.5708507671        3.5164762665       -2.2293308764
 H          3.4017839241        3.8476785360       -0.4583967905
 H          1.2843771454        5.1344193658       -0.8944157948
 H          1.4387823567        4.7990157323       -2.6693278758
 H          1.3591984338        2.3165629051       -2.1961868975
 O          0.8296911220       -0.0809866885       -1.3393001861
