  62
        -98.94354864
 C          1.8036445943        0.9430739854       -0.6417853077
 C          2.0003694672        0.0621456690        0.4491483755
 C          3.3914106397       -0.0948104038        0.8932681126
 C          4.3698146799        0.6084437863        0.2948392431
 C          5.8306296305        0.5758602644        0.6544535848
 C          6.6064344843       -0.5800894717        0.0081538501
 C          6.3156317662       -1.9642080335        0.5896902976
 H          7.0777373911       -2.6415155441        0.1990096452
 H          6.4327854179       -1.9334152925        1.6733989898
 C          4.9303569020       -2.5222287584        0.2345766029
 H          4.5200405334       -1.9663124416       -0.6115697096
 H          5.0282718357       -3.5625804950       -0.0836202839
 C          3.9209510799       -2.4924391916        1.3823817561
 H          4.2581563838       -3.1534821256        2.1837983437
 H          2.9670513395       -2.8731478215        1.0091960383
 C          3.6748755966       -1.0970409062        1.9711116994
 H          2.7947486107       -1.1462347472        2.6167846923
 H          4.5307753286       -0.7839506927        2.5685948096
 H          6.3977438276       -0.5838516570       -1.0642049839
 H          7.6707996090       -0.3709595712        0.1384072021
 H          6.2585372790        1.5169368964        0.3021242894
 H          5.9406648474        0.5287282593        1.7382258072
 O          4.1315021619        1.4746713338       -0.7266912974
 C          2.8524461297        1.6481376489       -1.2308503103
 O          2.7789538563        2.4533401434       -2.1820633717
 O          1.0693571423       -0.5586967518        1.0231161512
 C          0.4064399199        1.1539374370       -1.1965513266
 C         -0.4988560668        1.6913019612       -0.1149456498
 C         -0.0755194009        2.7873777130        0.6331466903
 C         -0.8680617881        3.3029795528        1.6394531499
 C         -2.1017991239        2.7410424298        1.9186864794
 C         -2.5370924708        1.6517334525        1.1744043584
 C         -1.7384991808        1.1381335404        0.1607043025
 H         -2.0964181500        0.3001462680       -0.4119590475
 N         -3.7629730520        1.0402917502        1.4599574163
 S         -4.6739343552        0.2910331710        0.2821278726
 O         -4.6552022986        1.0270838014       -0.9607063142
 O         -5.9755572020        0.1205428014        0.8924286058
 C         -3.9194586187       -1.3063405314        0.0599870766
 C         -3.8994110060       -1.8605169560       -1.2047554268
 C         -3.3330441024       -3.1130526244       -1.3802331337
 C         -2.8004669972       -3.7870493198       -0.2922470100
 C         -2.8338870495       -3.2192850963        0.9721626888
 C         -3.4010981446       -1.9683776278        1.1547610380
 H         -3.4339521367       -1.4968482441        2.1226258279
 H         -2.4140229823       -3.7440657875        1.8151438930
 H         -2.3544523414       -4.7593244314       -0.4311970089
 H         -3.3056659863       -3.5565705194       -2.3630063719
 H         -4.3152970207       -1.2951344827       -2.0239318161
 H         -4.3251956734        1.4883571524        2.1673115095
 H         -2.7196663588        3.1392708114        2.7090421387
 H         -0.5249010449        4.1515323557        2.2122889755
 H          0.8892128158        3.2261379907        0.4156292164
 H          0.4990774895        1.9249760693       -1.9757173061
 C         -0.0978263730       -0.1252740900       -1.8315982355
 C         -1.0983098339       -0.0733686269       -2.9453178606
 C          0.3226086839       -0.4537976705       -3.2313643498
 H          0.5419572597       -1.4820382216       -3.4762100948
 H          0.9532079397        0.2607897223       -3.7406307496
 H         -1.8543229362       -0.8422672895       -2.9926531960
 H         -1.4423023906        0.8989347549       -3.2649243135
 H         -0.1634042849       -0.9439777314       -1.1238111463
