  62
        -98.94477811
 C         -1.9763752610       -0.4652453073       -0.0690116693
 C         -2.9937861692       -0.6118669001        0.9119579941
 C         -4.1431106524        0.2948222602        0.8076349908
 C         -4.1655140357        1.2125673461       -0.1755449691
 C         -5.2909052204        2.1714850536       -0.4317668017
 C         -6.3113459745        1.5825988210       -1.4159500172
 C         -6.7604098928        0.1642183924       -1.0647543376
 H         -5.9099134936       -0.5138272946       -1.1654914303
 H         -7.5008453750       -0.1362416977       -1.8092326297
 C         -7.3599064203        0.0181499653        0.3408249258
 H         -8.2678536145       -0.5848295222        0.2732421831
 H         -7.6498072337        0.9973324451        0.7237343766
 C         -6.4423165519       -0.6701131294        1.3531211447
 H         -6.0739240639       -1.6096497742        0.9337083093
 H         -7.0362841234       -0.9171767622        2.2370546331
 C         -5.2371287396        0.1515752739        1.8279098352
 H         -4.7889098737       -0.3745788755        2.6757830887
 H         -5.5729172762        1.1321427036        2.1717538188
 H         -5.8610180321        1.5628175272       -2.4111153965
 H         -7.1793047625        2.2436324088       -1.4493553947
 H         -4.8734890397        3.0855053969       -0.8578306986
 H         -5.7770824859        2.4119969539        0.5118237910
 O         -3.1687091339        1.3382632275       -1.0850597031
 C         -2.0567478063        0.5083029459       -1.0645493181
 O         -1.2436732041        0.7556321221       -1.9788619219
 O         -2.9419279232       -1.4707094154        1.8320074812
 C         -0.7946071741       -1.4160243385        0.0342555616
 C          0.3924217667       -0.7439008308        0.6824480037
 C          0.8574885641       -1.1630115932        1.9234541576
 C          1.9490290908       -0.5487108886        2.5129251113
 C          2.5992675637        0.4930487753        1.8768235543
 C          2.1409773108        0.9187883731        0.6361712978
 C          1.0519730255        0.2965521380        0.0432916610
 H          0.6936988805        0.6412887589       -0.9151403207
 N          2.7973662475        1.9731534064       -0.0217278474
 S          4.4673274800        1.9082789905       -0.0962491841
 O          5.0259407130        2.4256728943        1.1287383567
 O          4.8285921329        2.6216565169       -1.3012969810
 C          4.8604141132        0.1737955730       -0.2481582003
 C          5.6500277698       -0.4383010850        0.7036264912
 C          5.9155324944       -1.7931630265        0.5842615956
 C          5.3848758915       -2.5094379314       -0.4769858154
 C          4.5957537222       -1.8790764040       -1.4269233048
 C          4.3290446918       -0.5245813465       -1.3144439668
 H          3.7200991128       -0.0071034203       -2.0385977360
 H          4.1832261557       -2.4375030637       -2.2517959559
 H          5.5865189707       -3.5651594040       -0.5663451780
 H          6.5308531038       -2.2851393114        1.3201479874
 H          6.0369606679        0.1560998911        1.5152134069
 H          2.3933969334        2.2039674635       -0.9176054906
 H          3.4446804084        0.9907307404        2.3239004466
 H          2.2964544803       -0.8828569145        3.4784567274
 H          0.3463992186       -1.9665394413        2.4331306175
 H         -1.1318097846       -2.2145571970        0.7083689202
 C         -0.4077576854       -2.0405622305       -1.2927172501
 C          0.4063030232       -3.2982726276       -1.2929869007
 C         -1.0349245371       -3.3379877116       -1.7020164329
 H         -1.2748804510       -3.4874569550       -2.7441449144
 H         -1.7465835192       -3.7854526656       -1.0234448549
 H          1.1588685571       -3.4229973050       -2.0558621712
 H          0.6740548890       -3.7202125660       -0.3364329642
 H         -0.2170620406       -1.3150381696       -2.0724399621
