  62
        -98.93204177
 C          2.4109949097        0.8725043797        0.7102863200
 C          3.4636208099        0.9127971000       -0.2335093498
 C          4.6273954098        0.0454504799        0.0390951701
 C          4.6259752096       -0.7556568305        1.1197715298
 C          5.6697822595       -1.7104519207        1.6611876997
 C          6.8689239996       -2.1228129604        0.8116503098
 C          6.5270828998       -2.9943728201       -0.3968136606
 H          7.4347662499       -3.1297960299       -0.9889177504
 H          6.2149137097       -3.9781512602       -0.0372744809
 C          5.4179098300       -2.4639813497       -1.3019630506
 H          5.2664185701       -3.1897984895       -2.1056862508
 H          4.4820373299       -2.4067174799       -0.7420642907
 C          5.6928306201       -1.1077545496       -1.9478861101
 H          6.6390457302       -1.1438401494       -2.4914801800
 H          4.8965422702       -0.9216201193       -2.6738239702
 C          5.7272045700        0.0890602701       -0.9828900397
 H          6.6970383799        0.1805810300       -0.5002888795
 H          5.5652252201        0.9979627303       -1.5695378295
 H          7.5252739195       -2.7065221307        1.4628938297
 H          7.4314731897       -1.2462260104        0.5041899701
 H          6.0413705294       -1.2494172810        2.5830452799
 H          5.1220207094       -2.6077986707        1.9663573193
 O          3.5746466295       -0.7780394807        1.9913535196
 C          2.4611137695        0.0183261294        1.8144621897
 O          1.5916100494       -0.1171124109        2.6994557795
 H         -1.2099889104        0.5717232597        1.1874212893
 C         -1.0139840002        0.5442022600        0.1235328093
 C          0.1696501199        1.0821544401       -0.3610373003
 C          0.4184421401        1.0248820805       -1.7280894203
 C         -0.4986846097        0.4381930808       -2.5810417106
 C         -1.6767857398       -0.1004923193       -2.0945138410
 C         -1.9344413801       -0.0498821297       -0.7312837210
 N         -3.1202074902       -0.6129063198       -0.2242742314
 S         -4.5470142400       -0.2929588595       -1.0723506715
 O         -4.6371546999       -1.2146656792       -2.1768637218
 O         -4.6151152099        1.1099567906       -1.4146728411
 C         -5.7763764702       -0.6950134798        0.1530139181
 C         -6.1477396303       -2.0159609899        0.3172160777
 C         -7.0875147305       -2.3312112901        1.2856198074
 C         -7.6363164606       -1.3268305104        2.0692000276
 C         -7.2546649705       -0.0054607003        1.8915053181
 C         -6.3144696703        0.3167772999        0.9255000384
 H         -5.9957255203        1.3311424000        0.7458022887
 H         -7.6854791306        0.7733740795        2.4999742283
 H         -8.3685693607       -1.5748103106        2.8212967574
 H         -7.3893430105       -3.3566984402        1.4253113970
 H         -5.7018233402       -2.7610970797       -0.3206666525
 H         -3.2341111603       -0.4330141701        0.7640332486
 H         -2.4012998998       -0.5536294190       -2.7520565813
 H         -0.2946991296        0.3989644512       -3.6408178106
 H          1.3426814302        1.4280317506       -2.1118814000
 C          1.1504777198        1.7159384598        0.5973917400
 H          0.6965795496        1.6957678195        1.5974971799
 C          1.4257613799        3.1608141799        0.2299978805
 C          0.3802729699        4.1923690898        0.5241865207
 C          1.6502051497        4.1632381096        1.3197682709
 H          2.3792554998        4.9430988296        1.1593725412
 H          1.6051462996        3.8114369992        2.3404453707
 H          0.2339612100        4.9930687501       -0.1843213691
 H         -0.5282447502        3.8611899697        1.0046375404
 H          2.0055113600        3.2746535702       -0.6756269994
 O          3.4671163001        1.6390792203       -1.2620796096
