  62
        -98.93763728
 C          1.6725598659        0.2685814400        0.6034349978
 C          2.9112889290        0.1475289181        1.2709615320
 C          4.1260941253        0.4288006895        0.4810249923
 C          3.9887925656        0.7804877891       -0.8112535961
 C          5.0720255870        1.0695402990       -1.8162098330
 C          5.7550543151       -0.2069843016       -2.3336091121
 C          6.0894262303       -1.2384992936       -1.2592038269
 H          5.1742613614       -1.5188364973       -0.7343803104
 H          6.4607463911       -2.1347562714       -1.7633069904
 C          7.1440393293       -0.8033528842       -0.2444823805
 H          7.3427754852       -1.6600716622        0.4047301267
 H          8.0708422871       -0.5649365191       -0.7712267231
 C          6.7693575394        0.3865656426        0.6413737988
 H          6.8640713225        1.3236395568        0.0994522793
 H          7.4967054255        0.4258076078        1.4576484383
 C          5.3925324716        0.2899424394        1.2913649017
 H          5.3244287152        1.0528058286        2.0765811028
 H          5.3106074032       -0.6688954535        1.8161143719
 H          6.6655731927        0.0787524640       -2.8629363845
 H          5.0819546396       -0.6820794982       -3.0514247274
 H          4.5915944961        1.5716970292       -2.6587006993
 H          5.8003236763        1.7552303835       -1.3936385424
 O          2.7698026860        0.8823773345       -1.4142188377
 C          1.5889667815        0.6323169115       -0.7399604886
 O          0.5609055971        0.7683989422       -1.4287630674
 O          3.0082987543       -0.1932423383        2.4818817194
 C          0.3909411043       -0.0143852084        1.3657942617
 C         -0.3575538987       -1.1418593456        0.7001960820
 C          0.3090273251       -2.3423900663        0.4648630178
 C         -0.3298198176       -3.3927633238       -0.1633979572
 C         -1.6483680377       -3.2713996106       -0.5670993174
 C         -2.3246615143       -2.0806668011       -0.3330353421
 C         -1.6795188967       -1.0280869871        0.3033578677
 H         -2.2215066947       -0.1161042342        0.4830396592
 N         -3.6449582204       -1.9166623081       -0.7659074638
 S         -4.7205231242       -0.9179784299        0.0233876691
 O         -4.5861208182       -1.0121289905        1.4585842949
 O         -6.0120817762       -1.2925624782       -0.5126269796
 C         -4.3150953349        0.7263386980       -0.5251813912
 C         -4.3876114877        1.7674232476        0.3790716400
 C         -4.0910852176        3.0512247845       -0.0496103104
 C         -3.7328204439        3.2706484010       -1.3706592733
 C         -3.6720158044        2.2155426422       -2.2679069899
 C         -3.9677381146        0.9295893043       -1.8454375083
 H         -3.9206535111        0.0877229730       -2.5157535168
 H         -3.3879576889        2.3896871403       -3.2932160271
 H         -3.4966313337        4.2695918901       -1.7022707555
 H         -4.1370362810        3.8737035543        0.6465607349
 H         -4.6622052105        1.5477994065        1.3989101611
 H         -4.0835138658       -2.7319656655       -1.1659627160
 H         -2.1472060003       -4.0891159029       -1.0645718191
 H          0.2004825397       -4.3164038728       -0.3410909393
 H          1.3400567279       -2.4363041064        0.7781392052
 H          0.7108471467       -0.3554724476        2.3616773008
 C         -0.4224963015        1.2527474281        1.5222575370
 C         -1.3801874604        1.3950171497        2.6658694793
 C         -0.1059632079        2.1831655869        2.6531018494
 H         -0.1588032812        3.2466421199        2.4756337389
 H          0.6847370713        1.8916258853        3.3289685422
 H         -2.3091438939        1.9174761125        2.4965541196
 H         -1.4639636508        0.5672660199        3.3539205492
 H         -0.6928641898        1.6963754009        0.5701527660
