  62
        -98.93685057
 C         -2.4830393696       -1.0434176136        0.3878841258
 C         -2.5337633742        0.1720164064       -0.3303898515
 C         -3.6889292491        1.0536992906       -0.0632033513
 C         -4.6102651445        0.6614929909        0.8364770038
 C         -5.8780632624        1.3655090243        1.2422652043
 C         -6.9886343245        1.2443507513        0.1867334108
 C         -6.5348595918        1.4752441862       -1.2521037887
 H         -5.7484448234        0.7597163447       -1.4988539826
 H         -7.3844280349        1.2613180560       -1.9060407925
 C         -6.0508685301        2.8896945141       -1.5625456942
 H         -5.8560349666        2.9367004696       -2.6370352550
 H         -6.8507512704        3.5992923200       -1.3395452053
 C         -4.7834152440        3.3384036352       -0.8315959289
 H         -4.4209160340        4.2403693114       -1.3332626955
 H         -5.0006598822        3.6233285551        0.1942996388
 C         -3.6384264614        2.3310889431       -0.8664309083
 H         -3.4575678415        2.0287916952       -1.9042564160
 H         -2.7177037768        2.8368584832       -0.5512725745
 H         -7.7817877709        1.9503233051        0.4388170339
 H         -7.4034164083        0.2351365876        0.2472115376
 H         -6.2204367226        0.8871389195        2.1626182459
 H         -5.6711761716        2.4072473639        1.4684330194
 O         -4.5157962156       -0.5231177798        1.5077780597
 C         -3.4648439791       -1.3958549868        1.3120361554
 O         -3.5108003989       -2.4306989166        2.0086369531
 H          0.9599696571       -1.7750518510       -1.3613271030
 C          1.0434443834       -1.2875011110       -0.4026377280
 C         -0.0227342426       -1.3103531167        0.4809765111
 C          0.1238827136       -0.6800524045        1.7144306105
 C          1.2973860585       -0.0294621845        2.0407597894
 C          2.3526423783        0.0103649020        1.1453161802
 C          2.2234749431       -0.6259123231       -0.0805125211
 N          3.2789169648       -0.5805789926       -1.0021169726
 S          4.8579148104       -0.7893539626       -0.4886071326
 O          5.5764752612       -1.2315236887       -1.6637142984
 O          4.9317813919       -1.6501168395        0.6689592254
 C          5.3958071257        0.8545106604       -0.0653529772
 C          5.2358618371        1.8550723738       -1.0037521074
 C          5.6608312497        3.1370340922       -0.6940779386
 C          6.2389823082        3.3949237655        0.5400054545
 C          6.3961506806        2.3788026938        1.4699465158
 C          5.9718788199        1.0943840871        1.1666609412
 H          6.0692707709        0.2748177840        1.8610098230
 H          6.8462963049        2.5812367662        2.4285761322
 H          6.5688317383        4.3938622503        0.7782073945
 H          5.5396321273        3.9299282810       -1.4145539994
 H          4.7842838253        1.6151727304       -1.9519070400
 H          3.0974473835       -1.0625203360       -1.8698450234
 H          3.2686568924        0.5213828105        1.3922930684
 H          1.3926513163        0.4568154741        2.9999563063
 H         -0.7019625165       -0.7061703503        2.4130044083
 C         -1.3276742674       -2.0046901308        0.1747602990
 H         -1.4638189777       -2.8101088852        0.9113375799
 C         -1.3960786271       -2.6010301051       -1.2155288186
 C         -0.7978755002       -3.9475916952       -1.4887800903
 C         -2.2868919907       -3.7815630845       -1.4531386889
 H         -2.8349818916       -3.8359650132       -2.3817944192
 H         -2.8276421271       -4.1734265971       -0.6038571056
 H         -0.3259575257       -4.1206629353       -2.4445684715
 H         -0.3247421837       -4.4611064012       -0.6652111780
 H         -1.3464860650       -1.8488295940       -1.9946632531
 O         -1.6586861853        0.5155511367       -1.1680293979
