  62
        -98.93102152
 C         -1.4325228129       -1.5684757257       -0.2916281146
 C         -1.3844212404       -0.2331774612        0.1779851313
 C         -2.6469547198        0.3182465617        0.7147924351
 C         -3.7500594998       -0.4468790509        0.7291493562
 C         -5.1368850645       -0.0528700033        1.1564466588
 C         -5.9570918124        0.4321047306       -0.0512736247
 C         -5.8138499175        1.9191019569       -0.3741949719
 H         -6.3381786649        2.0979475195       -1.3159012429
 H         -6.3200492916        2.5030620637        0.3974908181
 C         -4.3754772173        2.4264020230       -0.5075217246
 H         -3.7834210974        1.7086234617       -1.0780723612
 H         -4.4014707036        3.3540007047       -1.0826091526
 C         -3.7041857396        2.6983455533        0.8466795441
 H         -4.4643346415        2.6903147999        1.6277021299
 H         -3.2765646372        3.7028215792        0.8425323706
 C         -2.5685403408        1.7338645624        1.2189036318
 H         -1.6221097644        2.1138445466        0.8216485529
 H         -2.4644793425        1.7084964826        2.3085742026
 H         -7.0131104522        0.2276575836        0.1372949638
 H         -5.6598168464       -0.1636656640       -0.9183153588
 H         -5.1015523414        0.7013658523        1.9368566248
 H         -5.6074432781       -0.9530005133        1.5575077634
 O         -3.7518031412       -1.7312467958        0.2755394327
 C         -2.6122692668       -2.3171718635       -0.2362457204
 O         -2.7719941297       -3.4986104561       -0.6086378069
 O         -0.3604372153        0.4932535744        0.1565197072
 C         -0.2297982791       -2.2956549093       -0.8891040470
 C          0.9287755954       -2.3115106165        0.0759969793
 C          1.0656756047       -3.4234122138        0.9062170612
 C          2.0743418274       -3.4919903811        1.8480867453
 C          2.9781348995       -2.4533718241        1.9836025040
 C          2.8489394416       -1.3356519448        1.1687192095
 C          1.8336035634       -1.2714409262        0.2233837465
 H          1.7442072557       -0.3803180083       -0.3681771450
 N          3.7152622704       -0.2464180753        1.3109458526
 S          4.0767518359        0.7617682897        0.0323433979
 O          4.2126460294        0.0218454157       -1.2016148059
 O          5.2640120701        1.4690531777        0.4695589787
 C          2.7257554137        1.9144672608       -0.0629465497
 C          2.2631903038        2.3076955115       -1.3018785719
 C          1.2277822455        3.2256777260       -1.3692538616
 C          0.6793312972        3.7328847311       -0.2028650527
 C          1.1601098910        3.3315414885        1.0333697719
 C          2.1949833596        2.4150391968        1.1078028239
 H          2.5840255321        2.0720341577        2.0522364299
 H          0.7229023580        3.7209968572        1.9390790206
 H         -0.1348266982        4.4389431056       -0.2587328262
 H          0.8454227128        3.5310581935       -2.3305005951
 H          2.7061239002        1.8749103407       -2.1855978526
 H          4.4871054756       -0.3721198875        1.9475128165
 H          3.7684753664       -2.5018445083        2.7172575986
 H          2.1611839777       -4.3632384626        2.4797456770
 H          0.3603956108       -4.2375994729        0.8109309573
 H         -0.5691819400       -3.3394081428       -0.9717217198
 C          0.0278482018       -1.8522482254       -2.3273168287
 C          0.3912482016       -0.4612800874       -2.7505621788
 C          1.3782501212       -1.5765143340       -2.9177256371
 H          1.5717129045       -1.9381108847       -3.9174752528
 H          2.2463749471       -1.5909128896       -2.2767218132
 H         -0.0904319209       -0.0642239674       -3.6335107748
 H          0.5563770159        0.2771562298       -1.9832561592
 H         -0.6738241693       -2.3541766830       -2.9900442363
