  62
        -98.93336522
 C          2.6709402451       -0.4446365064       -0.0659337421
 C          2.3267199144       -1.3000248193        1.0099379317
 C          1.6043930766       -2.5404984370        0.6825581024
 C          1.2969416795       -2.7874870965       -0.6021153214
 C          0.4804784309       -3.9205070680       -1.1608674266
 C         -1.0059898237       -3.5274263568       -1.2349880496
 C         -1.8178844936       -3.8633316334        0.0144572723
 H         -2.8234443420       -3.4636406024       -0.1371428046
 H         -1.9012020343       -4.9490182122        0.1071423015
 C         -1.2598657244       -3.2943508246        1.3210424281
 H         -2.0720825460       -3.2775465399        2.0509412389
 H         -0.9509885412       -2.2591466387        1.1622637243
 C         -0.0955496832       -4.1166688991        1.8926233672
 H         -0.2965189322       -4.3463004450        2.9414138669
 H         -0.0401184687       -5.0724916181        1.3716884762
 C          1.2720619127       -3.4247969453        1.8539786442
 H          1.3704667362       -2.7715107894        2.7267703959
 H          2.0569577561       -4.1845674984        1.9434532960
 H         -1.0664368894       -2.4518277264       -1.4300822535
 H         -1.4620618065       -4.0395155997       -2.0855332270
 H          0.6196647341       -4.8261303722       -0.5776551855
 H          0.8474085752       -4.0946834128       -2.1747281534
 O          1.6722116575       -1.9564938687       -1.6123211970
 C          2.3307150896       -0.7589667576       -1.3813347093
 O          2.5569660698       -0.1070911306       -2.4197250073
 O          2.6154895671       -1.0286702648        2.2077834091
 C          3.2790476492        0.8964683406        0.3104651346
 C          2.1504702226        1.8326732826        0.6689770837
 C          2.1856247705        2.6380550382        1.8006815213
 C          1.0916684826        3.4101274668        2.1553741037
 C         -0.0745423601        3.3667983426        1.4102239481
 C         -0.1120102820        2.5751133332        0.2724336737
 C          1.0002948485        1.8451637077       -0.1072190867
 H          0.9388159425        1.2333934414       -0.9974071102
 N         -1.3360074107        2.4100255453       -0.4477064549
 S         -1.7820112884        0.7824247739       -0.5881261084
 O         -1.1621726326        0.0295175842        0.4723736260
 O         -1.5678929086        0.3252380412       -1.9468627404
 C         -3.5332179652        0.9043874426       -0.2773709366
 C         -3.9463925385        1.0726444506        1.0299675854
 C         -5.2990863367        1.2151394166        1.2931250114
 C         -6.2117661980        1.1898929417        0.2488417728
 C         -5.7820837864        1.0197869278       -1.0581707065
 C         -4.4294459274        0.8776815314       -1.3272091908
 H         -4.0501670911        0.7371982259       -2.3266002423
 H         -6.4934197690        0.9981395748       -1.8680575327
 H         -7.2643656820        1.3021136547        0.4556199910
 H         -5.6361781170        1.3458099547        2.3088284047
 H         -3.1994879780        1.0779648408        1.8071268058
 H         -1.3110345381        2.8176738613       -1.3722624716
 H         -0.9502973527        3.9223011704        1.7032671290
 H          1.1368470538        4.0250629412        3.0411377027
 H          3.0677983162        2.6311385543        2.4242617044
 H          3.8563723452        0.7093607641        1.2301008615
 C          4.2318812483        1.4707422484       -0.7247436933
 C          3.8770604842        2.6307388621       -1.6012289203
 C          4.8703195336        2.8088777924       -0.4948152327
 H          5.9115329234        2.9331649064       -0.7498068006
 H          4.5545096305        3.3693096864        0.3717850531
 H          4.2243252319        2.6100550617       -2.6226532854
 H          2.8981367539        3.0706041807       -1.4872854635
 H          4.8517945363        0.7024960512       -1.1742985264
