  62
        -98.94110748
 C         -2.0706027719       -0.7638292348       -0.4123866313
 C         -3.2181707685       -1.2916118351        0.2362624937
 C         -4.4800924549       -0.5802581943        0.0079706654
 C         -4.4942255707        0.5169674729       -0.7696716503
 C         -5.7042411959        1.3395003991       -1.1206927926
 C         -6.0764131033        2.3867175411       -0.0622695995
 C         -6.6908920757        1.8249167801        1.2204440076
 H         -7.1020569991        2.6705863903        1.7753399383
 H         -7.5229809453        1.1677267072        0.9656325864
 C         -5.6992311807        1.0776904095        2.1231498576
 H         -4.6778392895        1.3383316752        1.8357531282
 H         -5.8324487586        1.4028386250        3.1574593940
 C         -5.8465584215       -0.4438181102        2.1042924503
 H         -6.8189292647       -0.7228304771        2.5162257000
 H         -5.0731619018       -0.8709005313        2.7476255565
 C         -5.7067223159       -1.0753281599        0.7130543356
 H         -5.6069437242       -2.1565580960        0.8363369437
 H         -6.5958956922       -0.8718597634        0.1165287052
 H         -5.1838525542        2.9666838174        0.1841494029
 H         -6.7990377472        3.0675936110       -0.5181194679
 H         -5.4667348429        1.8602492165       -2.0509540303
 H         -6.5555366033        0.6815518354       -1.2984268564
 O         -3.3724076649        1.0051603414       -1.3584046119
 C         -2.1322389980        0.3973978838       -1.1852697723
 O         -1.2069734489        0.9873429126       -1.7724328210
 O         -3.1886200503       -2.3144305816        0.9704951330
 C         -0.7529259600       -1.4827386139       -0.1769357483
 C          0.3055605970       -0.5017288752        0.2554075746
 C          0.3006585394       -0.0290714445        1.5642649040
 C          1.2388233866        0.8942708825        1.9866290372
 C          2.1984390274        1.3696346131        1.1106362338
 C          2.2090483800        0.9066297573       -0.1985205262
 C          1.2782887297       -0.0360507326       -0.6151917761
 H          1.2845241047       -0.3740536758       -1.6395300441
 N          3.1720801009        1.3941784338       -1.0963626562
 S          4.7611441703        1.4925723881       -0.5944049525
 O          4.9430701539        2.6559231882        0.2377637061
 O          5.5466648880        1.4539918092       -1.8078167232
 C          5.0268826174        0.0134061390        0.3671085548
 C          5.2621514602        0.1006808035        1.7237297035
 C          5.4221458020       -1.0672602123        2.4525467373
 C          5.3409387371       -2.2955373265        1.8156553640
 C          5.1066766073       -2.3667220232        0.4506523795
 C          4.9459891462       -1.2026730856       -0.2825045636
 H          4.7706700098       -1.2204608220       -1.3462069518
 H          5.0462306992       -3.3235369015       -0.0427083278
 H          5.4620432444       -3.2036600155        2.3848949487
 H          5.6065670914       -1.0149996968        3.5134433108
 H          5.3191208237        1.0756957159        2.1792711674
 H          3.0905706158        1.0233283232       -2.0307471801
 H          2.9250751456        2.1055344474        1.4145883333
 H          1.2205976649        1.2529949355        3.0045664245
 H         -0.4570978085       -0.3889903830        2.2466266891
 H         -0.9624478708       -2.1526344030        0.6727251043
 C         -0.3020864279       -2.3748009464       -1.3242577037
 C         -1.3032239900       -3.1576341716       -2.1186755050
 C         -0.5376640272       -2.0448971640       -2.7665933736
 H          0.2315998484       -2.3028961097       -3.4804335267
 H         -1.0559015948       -1.1282009408       -3.0000932200
 H         -1.0661769733       -4.1750246497       -2.3908691726
 H         -2.3483267560       -2.9956491915       -1.8981181391
 H          0.6299693247       -2.8811372044       -1.0911650282
