  62
        -98.93937331
 C          1.0385723963        1.6315585699       -0.2222842307
 C          1.2047571301        0.2311731587       -0.3517101944
 C          2.3300115361       -0.3645015512        0.3927403310
 C          3.0964966690        0.4085912319        1.1782824092
 C          4.2526895974        0.0033923050        2.0583310014
 C          5.2682843949       -0.9934404623        1.4815564082
 C          5.4859344919       -0.8986746767       -0.0357889003
 H          5.0282620299        0.0132330538       -0.4227926119
 H          6.5572413194       -0.8363495949       -0.2357804919
 C          4.9359747644       -2.1088906429       -0.7946015763
 H          5.4319869286       -2.1685140639       -1.7662514930
 H          5.1930341503       -3.0142071360       -0.2403118447
 C          3.4300418441       -2.0920113430       -1.0547946984
 H          3.1533645295       -3.0561965419       -1.4872822249
 H          3.1902257348       -1.3260022613       -1.7966063061
 C          2.5490967885       -1.8344486912        0.1783624860
 H          1.5600933474       -2.2564007490       -0.0177909758
 H          2.9591378478       -2.3110648393        1.0659250978
 H          6.2132402171       -0.8129599550        1.9969563095
 H          4.9635267796       -2.0083823520        1.7334764347
 H          4.7591551479        0.9388427617        2.3086425351
 H          3.8432740990       -0.3992381346        2.9897880140
 O          2.8802715966        1.7486671410        1.3051097216
 C          1.8651347540        2.3844021479        0.6152122995
 O          1.8043311418        3.6146055474        0.8208454191
 O          0.4660462927       -0.5139304486       -1.0476067544
 C         -0.0559740914        2.4222182670       -0.9242078336
 C         -1.3436759118        2.3494177365       -0.1394498714
 C         -1.9731147719        3.4989921123        0.3228052888
 C         -3.1448891850        3.4112992145        1.0537234402
 C         -3.7002180994        2.1792152205        1.3494420112
 C         -3.0756901304        1.0243690557        0.8922029428
 C         -1.9169169482        1.1169648375        0.1373522456
 H         -1.4354680381        0.2181543158       -0.2097437320
 N         -3.6076248044       -0.2458529932        1.1593527336
 S         -2.5702734648       -1.5277871820        1.4571634093
 O         -3.3838609433       -2.4833028592        2.1850277549
 O         -1.3701615373       -1.0958139095        2.1380278335
 C         -2.1905659573       -2.2253523406       -0.1355086911
 C         -1.1453023477       -3.1237534654       -0.1973672952
 C         -0.8347585344       -3.7121055389       -1.4119996132
 C         -1.5752920271       -3.3951507853       -2.5392315900
 C         -2.6276334571       -2.4975234392       -2.4584275492
 C         -2.9441301378       -1.9060326346       -1.2457672120
 H         -3.7475463132       -1.1934715579       -1.1565991958
 H         -3.1992472352       -2.2484653260       -3.3383497343
 H         -1.3259384891       -3.8463922366       -3.4868485939
 H         -0.0119163246       -4.4064757183       -1.4760499168
 H         -0.5890610013       -3.3320754101        0.7036341450
 H         -4.4072950385       -0.2610073628        1.7753068358
 H         -4.6051388360        2.1092785011        1.9338288306
 H         -3.6243231072        4.3108451563        1.4091790360
 H         -1.5282900305        4.4628471042        0.1227911812
 H          0.2816297617        3.4678048767       -0.9177256044
 C         -0.2840472788        1.9980322583       -2.3624180077
 C         -0.9301802291        2.9619713909       -3.3096033926
 C          0.5245727164        2.6306722429       -3.4528656412
 H          0.8374379619        2.0161638773       -4.2834544387
 H          1.2492111526        3.3800366120       -3.1679474158
 H         -1.6197050567        2.5762712441       -4.0443669604
 H         -1.1913832378        3.9384152719       -2.9304579258
 H         -0.5247213889        0.9484619766       -2.4653421982
