  62
        -98.94498826
 C         -1.8790153273       -0.7131425945       -0.2005159234
 C         -2.4555606037       -0.1534746275        0.9641499522
 C         -3.5155772542        0.8359158738        0.7413945846
 C         -3.8443695615        1.1894570212       -0.5146888705
 C         -4.8846415909        2.2046538906       -0.9038386851
 C         -6.3145348178        1.6483898944       -0.9476459292
 C         -6.9435846231        1.3614537809        0.4163867003
 H         -6.8551782807        2.2453166134        1.0490095841
 H         -8.0081339347        1.1874361841        0.2475221568
 C         -6.3536081357        0.1443271896        1.1423544010
 H         -5.8013576531       -0.4724166756        0.4295731448
 H         -7.1640917244       -0.4719225940        1.5378156995
 C         -5.4343078028        0.4894750585        2.3138977982
 H         -6.0084759600        0.9933398162        3.0945960513
 H         -5.0455747910       -0.4431595936        2.7306147762
 C         -4.2391612218        1.3753150507        1.9383103466
 H         -4.5709644496        2.3972104375        1.7552151568
 H         -3.5383908337        1.3797488770        2.7769720727
 H         -6.3159397584        0.7364136126       -1.5490666742
 H         -6.9347595570        2.3861781821       -1.4618896361
 H         -4.8438046806        3.0531645470       -0.2200241984
 H         -4.6194956302        2.5522900615       -1.9047541327
 O         -3.2318194804        0.6633196969       -1.6085257896
 C         -2.2496991946       -0.3102085871       -1.4837422133
 O         -1.7924420459       -0.7189235718       -2.5670615189
 H          0.3233910902        0.6136210264        0.3065990427
 C          0.9256517690        0.0017625458       -0.3537613189
 C          0.4936772905       -1.2821719128       -0.6653056557
 C          1.2852137732       -2.0609732316       -1.4985776187
 C          2.4578126575       -1.5511099102       -2.0304980820
 C          2.8711630909       -0.2651882414       -1.7378119115
 C          2.0966902405        0.5155816356       -0.8880248544
 N          2.5144873119        1.8179726075       -0.5687379783
 S          4.1278664848        2.0613734707       -0.2004944952
 O          4.1458848036        3.2118012723        0.6759271555
 O          4.8907318987        2.1879764510       -1.4174047529
 C          4.6392238276        0.5955543849        0.6795837616
 C          3.9593805510        0.2563291809        1.8327208525
 C          4.3265083778       -0.8927757490        2.5136146308
 C          5.3633310765       -1.6784132496        2.0333992016
 C          6.0400859993       -1.3210599553        0.8778582019
 C          5.6747656530       -0.1744092212        0.1907419648
 H          6.1703973539        0.1383888938       -0.7137863879
 H          6.8473333251       -1.9324095897        0.5082281411
 H          5.6442285023       -2.5738278603        2.5649180186
 H          3.7998029345       -1.1717899560        3.4121717943
 H          3.1599421789        0.8890465014        2.1843477559
 H          1.9088931291        2.2998417960        0.0785609342
 H          3.7706477370        0.1519750676       -2.1606351647
 H          3.0561815488       -2.1634948567       -2.6873792061
 H          0.9795745633       -3.0648910869       -1.7420687977
 C         -0.7965734279       -1.7662451159       -0.0505169894
 H         -0.6386148799       -1.8666275541        1.0339409823
 C         -1.2717315284       -3.0959235626       -0.5971263456
 C         -0.7547254155       -4.3789028885       -0.0202421522
 C         -2.1632641396       -3.9480736199        0.2541683821
 H         -2.9715830885       -4.4840005935       -0.2203970753
 H         -2.4049361760       -3.5808505262        1.2410925070
 H         -0.5972478826       -5.2159124736       -0.6835225723
 H         -0.0395134163       -4.3123447955        0.7853283429
 H         -1.4833272630       -3.0570238380       -1.6597819735
 O         -2.0935333482       -0.4581668188        2.1329932075
