  62
        -98.94106290
 C         -1.7381135006       -0.9705958886        0.2974529169
 C         -2.1478942146        0.3787115089        0.4370462481
 C         -3.5959133230        0.5898500602        0.5906430775
 C         -4.4298878910       -0.4626760071        0.6526635932
 C         -5.9230436044       -0.4047804542        0.8284535514
 C         -6.6970180707       -0.1827450656       -0.4781499115
 C         -6.5962879213        1.2268340997       -1.0625566717
 H         -7.3521676206        1.3033243177       -1.8466788666
 H         -6.8502829123        1.9570514452       -0.2935545260
 C         -5.2257240661        1.5670056167       -1.6647369039
 H         -4.6644073425        0.6458814160       -1.8380965818
 H         -5.3630984256        2.0441838258       -2.6377270635
 C         -4.3760588120        2.5112314024       -0.8138215064
 H         -4.8674390555        3.4843366687       -0.7445785263
 H         -3.4158240413        2.6561927369       -1.3163266390
 C         -4.0962220765        2.0026360118        0.6065918707
 H         -3.3142250299        2.6264587096        1.0468846417
 H         -4.9945347037        2.0828569644        1.2184104331
 H         -6.3510616633       -0.9090188565       -1.2173361325
 H         -7.7492064401       -0.3932038612       -0.2731954501
 H         -6.2238248999       -1.3674953715        1.2473618681
 H         -6.1779887868        0.3795630910        1.5416574040
 O         -3.9881457268       -1.7466848964        0.5840912608
 C         -2.6458073984       -2.0297135641        0.3907145729
 O         -2.3860300604       -3.2480497730        0.3337912459
 O         -1.3662937668        1.3638929494        0.4387487090
 C         -0.2825774570       -1.3523813039        0.0888666936
 C          0.6084872126       -0.5705312488        1.0210291604
 C          0.4976827857       -0.7900142967        2.3919688838
 C          1.2922717393       -0.0981056592        3.2846443445
 C          2.2324050771        0.8097626960        2.8286330390
 C          2.3489120633        1.0373626888        1.4632174073
 C          1.5392939869        0.3502626237        0.5685024449
 H          1.6153193445        0.5836076215       -0.4795902542
 N          3.2904811053        1.9496296902        0.9692054569
 S          4.0385933592        1.6809406731       -0.4954392178
 O          5.2930754370        2.3970490016       -0.3937666044
 O          3.1861003463        2.0709676542       -1.5897424461
 C          4.3471101819       -0.0765322691       -0.5616780349
 C          3.9160022477       -0.8019505791       -1.6532579218
 C          4.1571584929       -2.1662004534       -1.6922158077
 C          4.8206914878       -2.7792673198       -0.6410711422
 C          5.2541949517       -2.0359312926        0.4460978318
 C          5.0182732653       -0.6715334542        0.4882375188
 H          5.3499647600       -0.0672918557        1.3166519748
 H          5.7726159499       -2.5157800241        1.2604313917
 H          5.0015248245       -3.8421338838       -0.6708050588
 H          3.8227714160       -2.7451244902       -2.5386100652
 H          3.3974742347       -0.2859091033       -2.4457779791
 H          3.9126217063        2.3482777009        1.6557212292
 H          2.8572722018        1.3498430345        3.5234804918
 H          1.1868547606       -0.2714609251        4.3450187317
 H         -0.2338771880       -1.5031793731        2.7475995332
 H         -0.2237965481       -2.4135621742        0.3822816257
 C          0.1754251054       -1.2779190136       -1.3600580615
 C         -0.7710050594       -1.5493697856       -2.4897902669
 C         -0.2370816164       -0.1663424018       -2.2752638290
 H          0.4911445843        0.2250524396       -2.9714266632
 H         -0.8990849518        0.5879806657       -1.8798332829
 H         -0.4122884581       -2.1164836831       -3.3353944842
 H         -1.8046219139       -1.7432616092       -2.2417170382
 H          1.1868401921       -1.6551159569       -1.4787424481
