  62
        -98.94040028
 C         -0.8165208627       -1.7365154276       -0.1452857410
 C         -1.1136914793       -0.4033874097       -0.5141609185
 C         -2.2738920913        0.2219755162        0.1502921325
 C         -2.9315831097       -0.4447149199        1.1151306478
 C         -4.0838781178       -0.0308907219        2.0071787655
 C         -4.9424884549        1.1835330784        1.6623951606
 C         -5.7823107454        1.0349602878        0.3945388903
 H         -6.5549291706        0.2834691010        0.5754066685
 H         -6.2823795559        1.9871724748        0.2043802929
 C         -5.0141430049        0.6176066646       -0.8568658497
 H         -5.7276666469        0.5624479272       -1.6834372417
 H         -4.6046835594       -0.3849955839       -0.7180007490
 C         -3.8877030567        1.5604075025       -1.2759252065
 H         -4.2757995715        2.5766023433       -1.3663617562
 H         -3.5452965105        1.2423207609       -2.2638798630
 C         -2.6588939513        1.5847910420       -0.3487728721
 H         -1.8046267654        1.9462675232       -0.9276459804
 H         -2.8008901529        2.2693680275        0.4847799705
 H         -5.6305084845        1.3245796154        2.5006212744
 H         -4.3261661590        2.0761771930        1.6087235781
 H         -4.7275740499       -0.9126179250        2.0895089798
 H         -3.6462198064        0.1252680850        2.9999438995
 O         -2.5646342980       -1.7056513727        1.4900627083
 C         -1.5311291410       -2.3785771582        0.8679940844
 O         -1.3482170544       -3.5372045230        1.2964835042
 H          1.4394648175       -0.1507563096       -0.2422167178
 C          2.0351303929       -0.9609382265        0.1441544433
 C          1.6148637639       -2.2700745728       -0.0369058416
 C          2.4049435011       -3.3001242069        0.4594491962
 C          3.5805869088       -3.0207994574        1.1335788312
 C          3.9751568399       -1.7123280216        1.3484852522
 C          3.1898013630       -0.6766712863        0.8560293498
 N          3.5428883387        0.6665926506        1.0546996324
 S          2.3354110065        1.7896322745        1.3568426907
 O          3.0087005740        2.8547816916        2.0757643605
 O          1.2101777433        1.1959023864        2.0440116345
 C          1.8531417272        2.4244354575       -0.2339390325
 C          0.6928183831        3.1687779525       -0.2904630880
 C          0.3106875260        3.7281731035       -1.4986401043
 C          1.0923521488        3.5316216339       -2.6256048849
 C          2.2551072295        2.7818922777       -2.5515499182
 C          2.6464280795        2.2248527916       -1.3444549269
 H          3.5403472334        1.6293076834       -1.2586146577
 H          2.8573040909        2.6238826760       -3.4320426670
 H          0.7883708839        3.9599334805       -3.5678388389
 H         -0.5976676849        4.3068965473       -1.5574688316
 H          0.1058307525        3.2808730186        0.6078966919
 H          4.3487458720        0.8195452892        1.6435197373
 H          4.8777607349       -1.4922345322        1.8981119440
 H          4.1864594500       -3.8291331152        1.5141021347
 H          2.0831539050       -4.3231945179        0.3317461470
 C          0.3148383788       -2.5537191762       -0.7506433388
 H          0.0555604630       -3.6053733724       -0.5645936890
 C          0.4767250248       -2.3555312760       -2.2455159578
 C          1.1293757362       -3.4322884585       -3.0568472784
 C         -0.3423790458       -3.1813396814       -3.1891326608
 H         -0.7114418817       -2.7171000182       -4.0910603048
 H         -1.0236152850       -3.9020689442       -2.7598580963
 H          1.4451591341       -4.3272598946       -2.5424802342
 H          1.7754833050       -3.1418031252       -3.8706697819
 H          0.6684050119       -1.3269277945       -2.5199766929
 O         -0.4574323185        0.2650545627       -1.3565774695
