  62
        -98.93943464
 C         -2.2906196509       -0.7834124301        0.0995064698
 C         -2.3819289208        0.6087095799        0.3662937899
 C         -3.5037492708        1.3211327500       -0.2536185300
 C         -4.3590259409        0.6514339400       -1.0469806200
 C         -5.5389410909        1.2350557101       -1.7757314599
 C         -6.8085601109        1.3436973301       -0.9202157198
 C         -6.7813949208        2.4390908800        0.1463222003
 H         -6.5004437908        3.3865849401       -0.3144516897
 H         -7.8014013407        2.5478263500        0.5201109803
 C         -5.8510895807        2.1457099399        1.3316653002
 H         -6.3704946706        2.3681497299        2.2665000402
 H         -5.6050071407        1.0814815399        1.3479002701
 C         -4.5520768507        2.9520140499        1.3342072502
 H         -4.7794292206        4.0141416999        1.4497681303
 H         -3.9560677606        2.6399388798        2.1957973601
 C         -3.6924201008        2.7712060500        0.0759556801
 H         -2.7053291707        3.1994927899        0.2683083501
 H         -4.1429579108        3.2965496700       -0.7661420798
 H         -7.6412828809        1.5463864702       -1.5975357697
 H         -6.9931205809        0.3773651801       -0.4455472998
 H         -5.2769582009        2.2180691901       -2.1679618598
 H         -5.7453739810        0.5680965402       -2.6154414399
 O         -4.2286728709       -0.6760742999       -1.2959194600
 C         -3.2141095409       -1.4308759600       -0.7223140802
 O         -3.2660727510       -2.6366168200       -1.0339299302
 O         -1.5637532107        1.2278073198        1.1000974099
 C         -1.1448028808       -1.5292273102        0.7618586497
 C          0.0050411391       -1.7585592601       -0.1908862903
 C         -0.1300834110       -2.5666658901       -1.3152493404
 C          0.9434910490       -2.7676658100       -2.1629299705
 C          2.1667807490       -2.1743537301       -1.9070437205
 C          2.3156952991       -1.3726190902       -0.7810467105
 C          1.2349234891       -1.1688549802        0.0659071796
 H          1.3561047292       -0.5269770202        0.9257695396
 N          3.5662953491       -0.8081433402       -0.4758039205
 S          3.6481358792        0.7119110197        0.2530880896
 O          3.3172423693        0.5780589597        1.6490621096
 O          2.8810426292        1.6729325598       -0.5081639403
 C          5.3942139092        1.0317298497        0.0814360995
 C          5.8437048792        1.8571817297       -0.9314886905
 C          7.2070336492        2.0669039997       -1.0701308305
 C          8.0926218192        1.4482831996       -0.2007055606
 C          7.6263297192        0.6231500796        0.8121679894
 C          6.2647993892        0.4107619696        0.9573420094
 H          5.8553876492       -0.2140495604        1.7337712094
 H          8.3176702992        0.1460726795        1.4879054493
 H          9.1528339592        1.6122535696       -0.3115846507
 H          7.5722789791        2.7105381298       -1.8541079005
 H          5.1176978291        2.3220671398       -1.5791319704
 H          4.2152183591       -0.8696375502       -1.2492074705
 H          3.0028621489       -2.3338997901       -2.5710881705
 H          0.8248951489       -3.3915891700       -3.0360297305
 H         -1.0860835110       -3.0207455400       -1.5243421804
 H         -0.7846804608       -0.8531989102        1.5502501797
 C         -1.5658431308       -2.8351328502        1.4088619397
 C         -0.7015691908       -3.4182247303        2.4846208596
 C         -2.0363935908       -2.8310113803        2.8306679997
 H         -2.8390586708       -3.4972910202        3.1089421897
 H         -2.0574277307       -1.8820283503        3.3471348998
 H         -0.5846306308       -4.4900530403        2.5267833195
 H          0.1832622092       -2.8664530003        2.7659401996
 H         -2.0528463509       -3.5175323501        0.7249312597
