  62
        -98.94197680
 C         -0.9579770595       -1.0756504415        0.7032662304
 C         -1.6015252598       -0.9912594111       -0.5525114094
 C         -2.3585437505        0.2449627486       -0.8168543786
 C         -2.3533357909        1.2251692681        0.1019981920
 C         -3.0855388916        2.5377809677        0.0449223829
 C         -4.4580945814        2.4273169266        0.7309870331
 C         -5.5949109614        1.9513749564       -0.1723524070
 H         -6.4703569511        1.7956470256        0.4621591231
 H         -5.8421293319        2.7417538667       -0.8841294165
 C         -5.3174149608        0.6628975170       -0.9509006477
 H         -4.8267296103       -0.0630547631       -0.3001447682
 H         -6.2780814106        0.2365351667       -1.2459981878
 C         -4.4681966312        0.8895378082       -2.2108113078
 H         -4.9600948411        0.4242359584       -3.0676163679
 H         -4.4227490318        1.9574789383       -2.4241570772
 C         -3.0449293308        0.3145866890       -2.1529686484
 H         -2.3982393013        0.8742253797       -2.8384710282
 H         -3.0542057903       -0.7193153908       -2.5132589390
 H         -4.3532587409        1.7470716562        1.5798986327
 H         -4.7305423919        3.4073114162        1.1278897437
 H         -2.4781486419        3.2593961178        0.5957798031
 H         -3.1815719520        2.8781187182       -0.9820700869
 O         -1.6867278006        1.1189214678        1.2850566518
 C         -0.9691866699       -0.0186693420        1.6107775510
 O         -0.3924777297        0.0332063077        2.7158881509
 O         -1.5591171294       -1.9101020306       -1.4133134699
 C         -0.1136171387       -2.2918455512        1.0434903696
 C          0.9933957511       -2.4026580300        0.0225772093
 C          1.3295655517       -3.5746087494       -0.6406262214
 C          2.3245346415       -3.5680034783       -1.6038709716
 C          2.9884611907       -2.4009765378       -1.9342594411
 C          2.6699159902       -1.2257255383       -1.2621968104
 C          1.7012230504       -1.2446625494       -0.2743701402
 H          1.4563583900       -0.3313612098        0.2480186303
 N          3.3243861195       -0.0190922978       -1.5496031999
 S          2.4992790487        1.4301706617       -1.4123430789
 O          1.1097825587        1.3098494111       -1.7892832887
 O          3.2866853580        2.3586216625       -2.1985673285
 C          2.6518649988        1.8638816408        0.3066133613
 C          3.8754442890        1.7046767911        0.9265271710
 C          3.9980347891        2.0565184105        2.2608415212
 C          2.9035867889        2.5604125895        2.9475427517
 C          1.6843141387        2.7219643191        2.3087536420
 C          1.5565802386        2.3732339298        0.9740818518
 H          0.6202447085        2.4655317696        0.4447875721
 H          0.8278580786        3.0997302084        2.8436208924
 H          2.9973789890        2.8260798389        3.9886647718
 H          4.9438813192        1.9324598507        2.7632565609
 H          4.7011718991        1.3056228719        0.3615486206
 H          3.9367354593       -0.0385715270       -2.3518585000
 H          3.7417830506       -2.3937114369       -2.7071395013
 H          2.5725609019       -4.4830149379       -2.1202153422
 H          0.8035692522       -4.4882247198       -0.4173426518
 H          0.3408858713       -2.0823590015        2.0229892096
 C         -0.9701411680       -3.5345353717        1.1548023690
 C         -0.5436229972       -4.6652478420        2.0408936983
 C         -1.6991480476       -3.7975674628        2.4370424590
 H         -2.6962545974       -4.2087005634        2.3882296290
 H         -1.5578143378       -3.0897627032        3.2410263194
 H         -0.7498499667       -5.6759965119        1.7227808078
 H          0.3825767528       -4.5525853718        2.5836665382
 H         -1.4827720581       -3.7705443715        0.2295409090
