  62
        -98.94558695
 C         -1.0799352444       -1.6915715033        0.0703532376
 C         -2.2283439570       -1.3219548558        0.8142678183
 C         -3.0662429422       -0.2684436701        0.2313355753
 C         -2.7103095498        0.2936940971       -0.9376058877
 C         -3.4836821324        1.3466181525       -1.6855424840
 C         -3.2306111999        2.7821263330       -1.2051631675
 C         -3.8406073916        3.1324854919        0.1523668596
 H         -3.7716364170        4.2164584961        0.2639719259
 H         -4.8995081416        2.8714062387        0.1541596400
 C         -3.1473404448        2.4720657355        1.3527104703
 H         -2.1541063095        2.1169736754        1.0646512227
 H         -2.9909454813        3.2149932481        2.1387358799
 C         -3.9254775024        1.3130229071        1.9764632092
 H         -3.3181749880        0.8924566675        2.7825563393
 H         -4.8528995903        1.6891847643        2.4148747254
 C         -4.2714287641        0.1812809148        1.0001917771
 H         -5.0605424855        0.5013516721        0.3195294907
 H         -4.6329883076       -0.6713423231        1.5807157905
 H         -2.1539016774        2.9622782861       -1.1714277290
 H         -3.6563263308        3.4552186842       -1.9530833533
 H         -4.5500557604        1.1270223751       -1.6223367040
 H         -3.1772254290        1.2731976828       -2.7312579324
 O         -1.5838953471       -0.0654684106       -1.6055825589
 C         -0.7203065459       -1.0338830053       -1.1066437072
 O          0.2976282917       -1.2055775628       -1.8010248165
 O         -2.5426902952       -1.8541837187        1.9131485874
 C         -0.1822498312       -2.7710540684        0.6449795186
 C          1.2590825830       -2.3276163982        0.6102506225
 C          2.2902519011       -3.0860837487        0.0718482301
 C          3.5916410211       -2.6154087643        0.0940901690
 C          3.8906772957       -1.3818456004        0.6410900963
 C          2.8651770424       -0.6137205949        1.1806059460
 C          1.5668955965       -1.0937561386        1.1714883181
 H          0.7796139726       -0.4868264562        1.5957207539
 N          3.1288386284        0.6458403847        1.7514314838
 S          2.1654828539        1.9404233796        1.3246080681
 O          2.9304753060        3.1023929716        1.7292925908
 O          0.8583389821        1.8150544060        1.9189378645
 C          2.0429217773        1.9086184557       -0.4529121910
 C          3.2007233525        1.8466631096       -1.2029104535
 C          3.1028988746        1.8400836009       -2.5840031431
 C          1.8572606020        1.9033702779       -3.1891938763
 C          0.7055953909        1.9759751299       -2.4234946306
 C          0.7994342905        1.9745105560       -1.0418275500
 H         -0.0701925795        2.0109260717       -0.4034853314
 H         -0.2644169241        2.0140226290       -2.8926343248
 H          1.7815456445        1.8931838118       -4.2650366109
 H          3.9963163283        1.7823209259       -3.1848190806
 H          4.1564390558        1.8113954135       -0.7057238877
 H          4.1036824178        0.9100491198        1.7416567325
 H          4.9052819673       -1.0136403893        0.6529753660
 H          4.3827522131       -3.2146435670       -0.3301149939
 H          2.0753466644       -4.0393416072       -0.3816763561
 H         -0.4828029010       -2.8380098008        1.7050850227
 C         -0.4070406243       -4.1520959002        0.0457839211
 C         -1.7082253809       -4.5135249897       -0.6044019878
 C         -0.4687331329       -4.3783160115       -1.4342199553
 H         -0.0221877176       -5.2766436824       -1.8347462624
 H         -0.3671606850       -3.5154661201       -2.0731275152
 H         -2.1094424036       -5.5009093703       -0.4309433887
 H         -2.4626607558       -3.7437618035       -0.6800283217
 H          0.0599284581       -4.9322619156        0.6391677322
