  62
        -98.93625097
 C          1.4179657979        1.5468452203        0.3129456044
 C          1.9801994878        0.9943540573       -0.8632093368
 C          2.8608040374       -0.1742645651       -0.6754415840
 C          3.0696287885       -0.6593724472        0.5599501101
 C          3.9190333302       -1.8353611815        0.9713513276
 C          3.8218396341       -3.1089204428        0.1179615793
 C          2.4542379337       -3.3535329646       -0.5375084136
 H          2.1290239075       -4.3708963039       -0.3124156797
 H          1.7107941598       -2.6715771553       -0.1216262677
 C          2.4840969506       -3.1985999825       -2.0600098763
 H          1.6335528546       -3.7365465015       -2.4865106330
 H          3.3919195368       -3.6683822905       -2.4446733836
 C          2.4130435862       -1.7594501539       -2.5692235207
 H          2.5758763391       -1.7742426180       -3.6497167188
 H          1.4091383746       -1.3565640253       -2.4061398896
 C          3.4147407594       -0.7827133586       -1.9321914441
 H          4.3742459351       -1.2631024333       -1.7569412484
 H          3.5618451381        0.0460846235       -2.6303330426
 H          4.5860346934       -3.0860940211       -0.6578342195
 H          4.0663151854       -3.9474596557        0.7719393143
 H          3.6180537287       -2.0568642560        1.9976731930
 H          4.9620509844       -1.5080321016        1.0061049321
 O          2.5211887832       -0.0860150152        1.6668740281
 C          1.6964619904        1.0208278496        1.5755634694
 O          1.2792843313        1.4419204174        2.6718291364
 O          1.7605508423        1.4311109497       -2.0235254717
 C          0.4498916596        2.7107835356        0.2766983657
 C         -0.9363681828        2.3050809739       -0.1767793886
 C         -2.0041528457        3.1845650125       -0.0181837068
 C         -3.2870498534        2.8203053143       -0.3844350495
 C         -3.5396676281        1.5692591305       -0.9220794478
 C         -2.4815334744        0.6915243782       -1.0967351454
 C         -1.1960696917        1.0579130297       -0.7214292064
 H         -0.3901646562        0.3495985463       -0.8558126007
 N         -2.7338234350       -0.6043221976       -1.6130592817
 S         -3.3605394359       -1.6678092180       -0.4780355878
 O         -3.3939336634       -2.9624077512       -1.1182006071
 O         -4.6202475088       -1.1430747396       -0.0187263524
 C         -2.1743815970       -1.6736260699        0.8545947204
 C         -2.1990533733       -0.6413100090        1.7720949055
 C         -1.2297516401       -0.6017888131        2.7612553929
 C         -0.2619117482       -1.5924304326        2.8194564644
 C         -0.2544143810       -2.6256938791        1.8955485545
 C         -1.2122961258       -2.6625816189        0.8943192619
 H         -1.2381758059       -3.4451322651        0.1524671975
 H          0.4968301905       -3.3974968317        1.9506670243
 H          0.4961251464       -1.5450505607        3.5853990220
 H         -1.2130681958        0.2091365608        3.4712741838
 H         -2.9729048275        0.1062376934        1.7032741786
 H         -1.9130514916       -1.0254851151       -2.0268483606
 H         -4.5347924320        1.2547105471       -1.1900582015
 H         -4.1018544824        3.5140518222       -0.2454790290
 H         -1.8236595927        4.1596967824        0.4061659986
 H          0.3627702711        3.0570579351        1.3167712098
 C          0.9663909549        3.8632954760       -0.5677935191
 C          0.7547393001        5.2802618304       -0.1308292495
 C          2.1227791190        4.6727427642       -0.0650753879
 H          2.8730544734        4.9939017881       -0.7715931621
 H          2.5202387909        4.4180294465        0.9071134514
 H          0.5587213345        6.0265794359       -0.8853991796
 H          0.2444385636        5.4531801722        0.8047697333
 H          0.9387054545        3.6517123894       -1.6294906485
