  62
        -98.94133014
 C          2.4846580993       -1.3269175375       -0.0229415254
 C          3.1399627274       -0.5844536360       -1.0404917085
 C          3.9201527778        0.5768627514       -0.6029456287
 C          3.9875859176        0.8768105597        0.7063475242
 C          4.7591447457        2.0144355835        1.3178616116
 C          4.0125906071        3.3553240214        1.2977171220
 C          3.9058453759        4.0196368054       -0.0755174284
 H          3.5621604432        5.0425842814        0.0901611009
 H          4.8961637452        4.0771121708       -0.5283757601
 C          2.9352554479        3.3257836693       -1.0418076255
 H          2.3034255824        4.0753236722       -1.5240329083
 H          2.2666868527        2.6669056676       -0.4812602259
 C          3.6112951769        2.5211084366       -2.1523417574
 H          4.1673044655        3.1965276223       -2.8063288459
 H          2.8304484062        2.0406943516       -2.7474337162
 C          4.5663833649        1.4295453002       -1.6524109582
 H          4.8190211915        0.7828549194       -2.4961474833
 H          5.4817179030        1.8781658590       -1.2670871964
 H          4.5459244615        4.0351913312        1.9662220948
 H          3.0103921509        3.2051399810        1.7071038288
 H          5.7171929501        2.1227109479        0.8086599073
 H          4.9461035867        1.7399003370        2.3582917407
 O          3.3539596331        0.1386129292        1.6539488599
 C          2.5684029979       -0.9589675134        1.3198094262
 O          2.0266772282       -1.4958183166        2.3058592211
 O          3.0831300733       -0.8907775151       -2.2609370257
 C          1.6655140409       -2.5233275511       -0.4790211260
 C          0.2297339562       -2.1145792688       -0.6867060633
 C         -0.3988167815       -2.2798455968       -1.9146184333
 C         -1.7037256502       -1.8558159762       -2.1003921505
 C         -2.4056737969       -1.2590575992       -1.0683978155
 C         -1.7843094830       -1.0861482524        0.1616416264
 C         -0.4798784748       -1.5157406452        0.3462618626
 H          0.0007079266       -1.3738734461        1.3038063565
 N         -2.4884779532       -0.4632439414        1.2159683792
 S         -2.8905266617        1.1502522901        0.9439680707
 O         -1.9432910717        1.7841117159        0.0539859809
 O         -3.0353387569        1.7408604084        2.2566833928
 C         -4.4904035289        1.0537940514        0.1691630263
 C         -5.5223341867        0.4743779734        0.8815700931
 C         -6.7740731397        0.3869904672        0.2937096633
 C         -6.9717743893        0.8796983771       -0.9878357185
 C         -5.9261005327        1.4612982646       -1.6883406491
 C         -4.6708325553        1.5508446406       -1.1065362917
 H         -3.8260658642        1.9887710861       -1.6138285240
 H         -6.0816063109        1.8438458099       -2.6842653363
 H         -7.9468322653        0.8101851170       -1.4435491146
 H         -7.5896727487       -0.0644776032        0.8351062259
 H         -5.3253430751        0.1096188159        1.8757809374
 H         -1.9999536129       -0.5354742972        2.0986420530
 H         -3.4207315386       -0.9241771434       -1.2071485778
 H         -2.1782242599       -1.9882799275       -3.0606015268
 H          0.1497806168       -2.7253308297       -2.7314901619
 H          2.0814244552       -2.7808690884       -1.4657977640
 C          1.8299664729       -3.7428830285        0.4176622471
 C          0.7192615462       -4.3434202946        1.2218521483
 C          1.2279184190       -5.0542167879        0.0062411366
 H          1.8088237145       -5.9548304431        0.1336187962
 H          0.5970539578       -5.0531405931       -0.8698879679
 H          0.9668106914       -4.7338573637        2.1972847760
 H         -0.2566769084       -3.8869058058        1.1733511499
 H          2.8168181388       -3.7816057788        0.8676792686
