  62
        -98.93962170
 C         -1.5970194633       -1.5292498935        0.3244326005
 C         -1.6671614684       -0.3874337285        1.1621927472
 C         -2.8600056608        0.4643240260        1.0316524279
 C         -3.8207209616        0.1078070439        0.1618071083
 C         -5.0992937732        0.8408959945       -0.1353530239
 C         -4.9329372983        1.7568860035       -1.3591485553
 C         -4.3817910621        3.1473852448       -1.0466217942
 H         -4.1816337352        3.6397609926       -2.0008546300
 H         -5.1486170806        3.7301910245       -0.5320605025
 C         -3.1024024456        3.1659784134       -0.2054636824
 H         -2.4287124101        2.3816004486       -0.5552753859
 H         -2.6059471551        4.1232574444       -0.3751907701
 C         -3.3648715974        3.0076402016        1.3005286225
 H         -4.4284323624        3.1532035084        1.4896677878
 H         -2.8447575990        3.8005576775        1.8423331017
 C         -2.9142178309        1.6745853634        1.9232115096
 H         -1.8979749640        1.7757590839        2.3177514804
 H         -3.5558897584        1.4482609148        2.7813033460
 H         -5.9047769841        1.8772311566       -1.8419721291
 H         -4.2751833139        1.2497582925       -2.0696102900
 H         -5.4294289763        1.4026036256        0.7337888039
 H         -5.8475063377        0.0805385231       -0.3688625471
 O         -3.7169817096       -0.9946570549       -0.6250103943
 C         -2.6072262785       -1.8243588326       -0.5917200265
 O         -2.6653114295       -2.7599738760       -1.4124639491
 O         -0.7650766733       -0.0919596678        1.9927539819
 C         -0.3579582632       -2.3971993157        0.4660831950
 C          0.6847300690       -2.0060868252       -0.5539268200
 C          0.4692037842       -2.1769246711       -1.9177600060
 C          1.4404805831       -1.8039291020       -2.8282650644
 C          2.6329209750       -1.2446635443       -2.4018707320
 C          2.8569607361       -1.0677842275       -1.0416505247
 C          1.8853751821       -1.4570213660       -0.1290641669
 H          2.0745607733       -1.3212741536        0.9246422370
 N          4.0653827211       -0.5233804038       -0.5809132142
 S          4.0921061632        0.5913055441        0.6670854639
 O          5.4301666340        1.1395611390        0.6186721930
 O          3.7118661080       -0.0408244949        1.9036782003
 C          2.9185219638        1.8457895194        0.1904218367
 C          1.6149297185        1.8010802794        0.6400695307
 C          0.7276551412        2.7732291591        0.2038538019
 C          1.1499450412        3.7620867984       -0.6696233787
 C          2.4644909585        3.7935681126       -1.1110585833
 C          3.3566106230        2.8264620432       -0.6801158450
 H          4.3904139230        2.8227308685       -0.9858823609
 H          2.7937963838        4.5663066258       -1.7869221642
 H          0.4511245926        4.5124987491       -1.0043728075
 H         -0.2917859709        2.7415197053        0.5532001318
 H          1.2936163044        1.0258905777        1.3180878195
 H          4.7082140333       -0.2563757972       -1.3123512746
 H          3.3876460586       -0.9518810008       -3.1158164808
 H          1.2649355083       -1.9437363803       -3.8842502601
 H         -0.4678096860       -2.5942658665       -2.2535254714
 H          0.0494827386       -2.1582621584        1.4583821090
 C         -0.6370535127       -3.8858722862        0.4155943116
 C          0.3673152456       -4.8266392097        1.0079097215
 C         -0.9530766994       -4.6153980507        1.6849713760
 H         -1.6840287519       -5.4093481792        1.6538098793
 H         -0.9699954768       -4.0429967991        2.6013207951
 H          0.5461718051       -5.7681741218        0.5119203076
 H          1.2463109518       -4.3967700929        1.4651995236
 H         -1.1563649288       -4.2012460545       -0.4793999927
