  62
        -98.93721247
 C         -2.2969793296       -0.2971696108       -0.3832293998
 C         -3.4979224996       -0.5761835236       -1.0846491487
 C         -4.7224078396       -0.6439043503       -0.2772562584
 C         -4.6373328896       -0.4846733049        1.0558735610
 C         -5.8094848197       -0.4666716410        1.9927831309
 C         -6.3462042296        0.9591222397        2.1830940050
 C         -6.5764004596        1.7141247244        0.8738542119
 H         -6.9812685996        2.6952371055        1.1312554379
 H         -5.6136721896        1.8834215124        0.3857761513
 C         -7.5248783996        1.0108092904       -0.1071090152
 H         -8.1117523996        0.2581223426        0.4204604879
 H         -8.2252334796        1.7474795088       -0.5061749182
 C         -6.8300169896        0.3619965455       -1.3055902725
 H         -7.5959839396        0.0866682426       -2.0353873314
 H         -6.1694105196        1.0892940936       -1.7847155355
 C         -6.0152076396       -0.9008081032       -0.9991882674
 H         -5.7382821196       -1.3575384871       -1.9539159455
 H         -6.6315868196       -1.6107824010       -0.4441385145
 H         -7.2820911097        0.9034582320        2.7419480752
 H         -5.6262028296        1.5230000122        2.7807128427
 H         -5.4834441797       -0.8546972171        2.9591031724
 H         -6.5926853297       -1.1110396726        1.5980490935
 O         -3.4620761397       -0.2765806123        1.7009263601
 C         -2.2619306596       -0.1766321451        1.0066661897
 O         -1.2725102696        0.0075164979        1.7391336790
 O         -3.5409341196       -0.7661460387       -2.3297418479
 C         -1.0203000396       -0.2000664841       -1.1969619802
 C          0.0822121704       -1.0144649216       -0.5690617968
 C         -0.1196308096       -2.3807073608       -0.3839822412
 C          0.8656203503       -3.1730935286        0.1703316720
 C          2.0862499403       -2.6267957371        0.5276004798
 C          2.2968138004       -1.2657283578        0.3495234442
 C          1.2958540304       -0.4675541200       -0.1877539690
 H          1.4844732404        0.5879860295       -0.2918145733
 N          3.5164693004       -0.6720416364        0.7109360618
 S          4.1142631104        0.5633132996       -0.2719822732
 O          3.5981427804        1.8271142915        0.1905335116
 O          3.8747373504        0.2475110839       -1.6623098319
 C          5.8583741304        0.4561657410        0.0883538173
 C          6.6673560804       -0.3079555223       -0.7318053696
 C          8.0165490704       -0.4137978911       -0.4330936491
 C          8.5309816004        0.2403479934        0.6763249382
 C          7.7069616304        1.0039380967        1.4898070451
 C          6.3569464004        1.1147356456        1.1964591546
 H          5.6802221304        1.7034725280        1.7937541622
 H          8.1110768104        1.5135287202        2.3495625330
 H          9.5813407404        0.1569938643        0.9066548086
 H          8.6600427304       -1.0037684337       -1.0656351167
 H          6.2251605404       -0.7900310058       -1.5888693076
 H          4.2304384203       -1.3456308954        0.9512314046
 H          2.8622530103       -3.2465644554        0.9507588423
 H          0.6890220803       -4.2286174980        0.3139927363
 H         -1.0685398596       -2.8105372820       -0.6765238395
 H         -1.2756380996       -0.6756143080       -2.1600826682
 C         -0.5970878996        1.2245733846       -1.5221924560
 C         -1.6009796896        2.3332573042       -1.6151998305
 C         -0.6048503996        2.3167315887       -0.4966779404
 H          0.2038022604        3.0336908387       -0.5103772433
 H         -0.9440131896        2.0661731928        0.4962363306
 H         -1.4860123295        3.0659585310       -2.3997343835
 H         -2.6294622296        2.0960167151       -1.3840868195
 H          0.2139818804        1.2493368716       -2.2453581160
