  62
        -98.94606727
 C          1.4145515070        0.8268242270       -0.0977744570
 C          2.5004211510        0.8538622910        0.8160504018
 C          3.4741860408       -0.2392350999        0.7166545773
 C          3.2788451260       -1.2064507098       -0.1976994071
 C          4.2099053439       -2.3580674930       -0.4419136326
 C          5.2508649885       -2.0152174662       -1.5168425817
 C          5.9536986921       -0.6766704093       -1.2902334341
 H          6.6856651405       -0.5542206566       -2.0914328130
 H          5.2242619346        0.1297099496       -1.3942846369
 C          6.6565026686       -0.5508163118        0.0686871156
 H          6.7998018346       -1.5401749795        0.5045734076
 H          7.6471064003       -0.1187934067       -0.0879160466
 C          5.9335228242        0.3457200884        1.0755670346
 H          5.7039133157        1.3076802801        0.6106281491
 H          6.6142429041        0.5390236041        1.9089096381
 C          4.6380767441       -0.2240440585        1.6674218005
 H          4.8231285455       -1.2246443311        2.0641975159
 H          4.3376709785        0.4237301062        2.4963039220
 H          5.9908816392       -2.8170148129       -1.5482838644
 H          4.7476065197       -1.9789188296       -2.4858134668
 H          4.7067291928       -2.6191452574        0.4907500949
 H          3.6180790056       -3.2116979974       -0.7776069518
 O          2.2208186096       -1.2144076250       -1.0439255365
 C          1.2610540637       -0.2094330808       -1.0202528314
 O          0.3612530505       -0.3704139953       -1.8671191286
 H         -0.8459315172       -0.4234225257        0.4325376594
 C         -1.2480224238        0.3671491935        1.0454430841
 C         -0.7045424410        1.6408749534        0.9824985736
 C         -1.2278073138        2.6312659770        1.8070173018
 C         -2.2685195238        2.3497202280        2.6724622272
 C         -2.8144700307        1.0799038077        2.7255986252
 C         -2.2966218830        0.0807774830        1.9092536629
 N         -2.8150427597       -1.2206178145        1.9601461913
 S         -2.9469615562       -2.1384528014        0.5668114192
 O         -3.9127698370       -3.1600316907        0.9169134528
 O         -1.6514273291       -2.6161302196        0.1568188731
 C         -3.6652837132       -1.0314607019       -0.6323761243
 C         -2.9119116603       -0.5084798559       -1.6622235493
 C         -3.5124276387        0.3882034161       -2.5343420288
 C         -4.8400519569        0.7449455356       -2.3628147433
 C         -5.5844989377        0.2039817558       -1.3249371586
 C         -4.9927366222       -0.6907272359       -0.4499758261
 H         -5.5394655487       -1.1450400642        0.3604247888
 H         -6.6189259568        0.4784721408       -1.1955243625
 H         -5.2969447794        1.4458830154       -3.0435329671
 H         -2.9300421950        0.8035370615       -3.3417956727
 H         -1.8764899502       -0.7926024129       -1.7719995366
 H         -3.6233597531       -1.3313576363        2.5545643006
 H         -3.6250559490        0.8561172077        3.4018303245
 H         -2.6606846100        3.1255047138        3.3119140081
 H         -0.8016999797        3.6225015152        1.7788076256
 C          0.4176624034        1.9640552478        0.0215109613
 H          0.9850683786        2.8016393195        0.4518777199
 C         -0.1725192293        2.4149994165       -1.3011531844
 C         -0.5916647492        3.8419077249       -1.4808550918
 C          0.6196180578        3.3209320128       -2.1933863118
 H          0.5719879696        3.1611678048       -3.2598573199
 H          1.5921915641        3.6375611880       -1.8449963065
 H         -0.4352885922        4.5226013686       -0.6583313050
 H         -1.4800565848        4.0459938612       -2.0578911694
 H         -0.7721800221        1.6516457073       -1.7782111928
 O          2.6490704898        1.7646462400        1.6757083837
