  62
        -98.94278251
 C          1.3121706737        1.6250465424        0.2333407014
 C          1.6477721336        0.6088641101        1.1573449341
 C          2.8246028138       -0.2153973995        0.8386952639
 C          3.4993876484        0.0179548945       -0.3001869877
 C          4.7584569108       -0.6383001178       -0.8123711511
 C          4.9197274213       -2.1487027481       -0.6123977957
 C          3.6283717007       -2.9634949815       -0.7747434776
 H          2.8347455960       -2.3418143286       -1.1948886199
 H          3.8065889045       -3.7788223608       -1.4787361440
 C          3.1347707633       -3.5732165598        0.5385338579
 H          2.4557368544       -4.3970956569        0.3054232878
 H          3.9864114493       -3.9875117317        1.0836018756
 C          2.3719074853       -2.6076873195        1.4424772532
 H          1.4345446562       -2.3313173693        0.9504417349
 H          2.1103094388       -3.1386962535        2.3614253032
 C          3.1263186081       -1.3182696778        1.8123364108
 H          4.1948549632       -1.5002502591        1.8998882665
 H          2.7530962385       -0.9736950613        2.7807810992
 H          5.6556058767       -2.4836255415       -1.3458179749
 H          5.3449991618       -2.3455526429        0.3706169869
 H          4.7814859820       -0.4093133662       -1.8809376935
 H          5.6117584991       -0.1261209542       -0.3566501420
 O          3.1220561233        0.9896333285       -1.1803099692
 C          2.0124892564        1.7905740223       -0.9596014216
 O          1.7692722938        2.5938990922       -1.8806517689
 O          0.9924612001        0.4026814681        2.2152342665
 C          0.0833135738        2.4746139720        0.4957242966
 C         -1.0128418552        2.1343385832       -0.4865367917
 C         -1.9107301859        3.0683899351       -0.9886434449
 C         -2.9104979254        2.6752903733       -1.8621867534
 C         -3.0524647985        1.3512736188       -2.2372412576
 C         -2.1608457868        0.4087488395       -1.7374000048
 C         -1.1554043868        0.8097485507       -0.8738306385
 H         -0.4538014514        0.0737256812       -0.5160896855
 N         -2.2505956646       -0.9443333010       -2.0928831710
 S         -1.8249782494       -2.1360094112       -0.9996725781
 O         -0.3963519039       -2.1688409334       -0.8165022612
 O         -2.4175275979       -3.3388076903       -1.5459605073
 C         -2.6690183281       -1.6935769126        0.5081881453
 C         -4.0410516642       -1.8638225525        0.5238576107
 C         -4.7543155244       -1.4948959891        1.6514284949
 C         -4.0869580627       -0.9569606293        2.7420840252
 C         -2.7111578662       -0.7970890040        2.7130802935
 C         -1.9902583434       -1.1677416943        1.5876626207
 H         -0.9190960349       -1.0435955299        1.5533102183
 H         -2.1818909613       -0.3808264926        3.5554728171
 H         -4.6404385916       -0.6636596188        3.6201654377
 H         -5.8242543376       -1.6244423207        1.6766962663
 H         -4.5193750901       -2.2982326792       -0.3390011861
 H         -3.0636145081       -1.1959331088       -2.6345793533
 H         -3.8342944899        1.0496867531       -2.9170877854
 H         -3.5957324194        3.4120003577       -2.2530570125
 H         -1.8227056384        4.1038204496       -0.7030587243
 H         -0.2674484006        2.1731714806        1.4953839146
 C          0.4292488449        3.9482291096        0.5269223947
 C         -0.3254459342        4.8840397820        1.4222025555
 C          1.0873764662        4.5095686235        1.7508774539
 H          1.8637685957        5.2491151771        1.6252773125
 H          1.2599826782        3.8327158274        2.5750416070
 H         -0.5189243124        5.8870839908        1.0729319748
 H         -1.1124212381        4.4678393641        2.0327693000
 H          0.7666799181        4.3165894039       -0.4349539407
