  62
        -98.94310653
 C         -1.8385603861       -0.8317408815        0.7130079894
 C         -2.8149357048       -1.2027037531       -0.2440637192
 C         -4.1505763651       -0.6130987194       -0.0596828827
 C         -4.3771729706        0.2110291268        0.9781470109
 C         -5.6694518993        0.9267153360        1.2422488092
 C         -5.6847814503        2.3081046551        0.5727456089
 C         -5.2663384031        2.2874294799       -0.8976138881
 H         -5.3461273526        3.3103706025       -1.2720899091
 H         -4.2133853675        2.0032556721       -0.9645117373
 C         -6.1015651471        1.3518804481       -1.7829320480
 H         -7.0401383289        1.1096209296       -1.2831288383
 H         -6.3525759053        1.8770927905       -2.7068830915
 C         -5.3920005787        0.0575456403       -2.1846448723
 H         -4.4092575305        0.2929980478       -2.6008191051
 H         -5.9774422005       -0.4191105323       -2.9753154076
 C         -5.2063142396       -0.9755453086       -1.0663068790
 H         -6.1623077476       -1.1601613439       -0.5725459233
 H         -4.8714058332       -1.9084170905       -1.5287922314
 H         -6.6903138246        2.7235109718        0.6612725208
 H         -4.9977384222        2.9626670833        1.1144548974
 H         -6.4958746067        0.3228870687        0.8725318525
 H         -5.7780711350        1.0542314445        2.3206725592
 O         -3.4227639227        0.5262029088        1.8910769451
 C         -2.1379491383        0.0251998852        1.7763967111
 O         -1.3630553242        0.4015463041        2.6798393193
 H          1.3119350951        0.7202254371        1.0220470852
 C          1.2015865594        0.4733143549       -0.0238044960
 C          0.3558030666       -0.5586461585       -0.4082653626
 C          0.2083879924       -0.8319676866       -1.7645820679
 C          0.8900406670       -0.0840398697       -2.7067288482
 C          1.7443469462        0.9333036333       -2.3192417517
 C          1.8973075460        1.2163908470       -0.9676096821
 N          2.7577106163        2.2455845066       -0.5420814096
 S          3.8926618770        1.8979800785        0.6382910828
 O          3.2553686031        1.7518104105        1.9212269934
 O          4.8718045418        2.9567571078        0.5257572129
 C          4.6022383497        0.3491495625        0.1113021134
 C          4.1395272500       -0.8341657634        0.6496793317
 C          4.6444849658       -2.0313437074        0.1669713467
 C          5.5957986926       -2.0239373557       -0.8411573161
 C          6.0552313669       -0.8262706845       -1.3678044028
 C          5.5515425692        0.3731128397       -0.8920208045
 H          5.8881277949        1.3262502097       -1.2666347766
 H          6.7993628752       -0.8243449622       -2.1478155746
 H          5.9825820878       -2.9584443596       -1.2155433798
 H          4.2903460598       -2.9640587261        0.5763669584
 H          3.4024448182       -0.7954673909        1.4356621218
 H          3.1899746145        2.7549202728       -1.3000064777
 H          2.2800045828        1.5130555014       -3.0557339980
 H          0.7600705885       -0.3002273498       -3.7562088063
 H         -0.4704179611       -1.6099896806       -2.0746336797
 C         -0.3999129262       -1.3252817597        0.6512773017
 H          0.0392693833       -1.0655828025        1.6242384290
 C         -0.2970997479       -2.8256975087        0.4651377721
 C          0.9705425488       -3.5179228536        0.8613829356
 C         -0.2736579587       -3.7086649309        1.6747516061
 H         -0.7835356498       -4.6592070388        1.6281096063
 H         -0.3297569670       -3.2319421984        2.6431876336
 H          1.3204895958       -4.3394685716        0.2559078733
 H          1.7564013769       -2.9090771865        1.2821431779
 H         -0.8268531718       -3.1941986740       -0.4024382743
 O         -2.6077965023       -1.9855095737       -1.2071192668
