  62
        -98.94308542
 C          1.7079005995        1.2575961289        0.3453929311
 C          1.3710947302        0.1739563062       -0.4969747503
 C          1.9135303489       -1.1405187446       -0.1221663334
 C          2.6522793940       -1.2531412166        0.9944375138
 C          3.2522715767       -2.4982559649        1.5983577292
 C          3.9301307066       -3.4942709544        0.6465415422
 C          4.6053679224       -2.8652891244       -0.5811645710
 H          4.6656708845       -1.7824408690       -0.4599052075
 H          5.6268880404       -3.2428300625       -0.6549736545
 C          3.8867177753       -3.1942824815       -1.8918848854
 H          3.6050616797       -4.2493564560       -1.8801793060
 H          4.5849757237       -3.0508986926       -2.7198702954
 C          2.6489547854       -2.3496144452       -2.1916869536
 H          2.1674787553       -2.7628076581       -3.0809816531
 H          2.9493177113       -1.3266834032       -2.4334274003
 C          1.6103386214       -2.2728649825       -1.0604060085
 H          0.6385002458       -2.0437982493       -1.5059176814
 H          1.5273257807       -3.2189983944       -0.5306928680
 H          4.6739803175       -4.0344906465        1.2347116721
 H          3.2002902417       -4.2305255614        0.3124856991
 H          3.9794879747       -2.1371767167        2.3300283601
 H          2.4628793805       -3.0113164016        2.1563953960
 O          2.9378119724       -0.1839413414        1.7913816750
 C          2.4691650075        1.0846493542        1.4978541378
 O          2.7954975253        1.9614757889        2.3260044226
 O          0.6373956109        0.2967497154       -1.5133463628
 C          1.1633220329        2.6416977750        0.0435685582
 C         -0.3418023758        2.5850269323       -0.0638044316
 C         -1.0669233850        3.2851222919       -1.0202676291
 C         -2.4454440356        3.1717974583       -1.0781520371
 C         -3.1259295084        2.3442618874       -0.2036680541
 C         -2.4099605134        1.6489634170        0.7637375689
 C         -1.0356554945        1.7977443084        0.8463299130
 H         -0.4954573825        1.2523324315        1.6068847939
 N         -3.0482654036        0.7741857787        1.6687377146
 S         -2.6359259406       -0.8487767013        1.5766683116
 O         -3.4804379858       -1.5034901061        2.5535375063
 O         -1.2155294293       -1.0111498137        1.7500609850
 C         -3.1449914592       -1.3399598101       -0.0617465196
 C         -2.3659458315       -0.9926280587       -1.1471801963
 C         -2.8132208550       -1.3202648621       -2.4185282796
 C         -4.0209599869       -1.9801103047       -2.5832309532
 C         -4.7916764374       -2.3204536696       -1.4814959883
 C         -4.3540843825       -1.9933714665       -0.2085932488
 H         -4.9169085065       -2.2387776372        0.6776234691
 H         -5.7300902259       -2.8353542955       -1.6101506444
 H         -4.3617027196       -2.2306518011       -3.5754644115
 H         -2.2070919307       -1.0507572128       -3.2686906061
 H         -1.4262380255       -0.4823342341       -1.0006211557
 H         -4.0564089055        0.8548871957        1.6672250665
 H         -4.1980471648        2.2336934509       -0.2664307146
 H         -2.9949390022        3.7205351884       -1.8275796056
 H         -0.5508474530        3.9153601374       -1.7259874521
 H          1.4255855958        3.2688008265        0.9087832420
 C          1.8305257058        3.2089251571       -1.1933124807
 C          2.0542118321        4.6846718429       -1.3264370160
 C          3.2140536254        3.7707521076       -1.0721379129
 H          3.9169199566        3.5902232806       -1.8715943229
 H          3.6624632850        3.7691566087       -0.0888952467
 H          1.9651152211        5.1343542823       -2.3038729224
 H          1.7228253141        5.3163861007       -0.5161458524
 H          1.5973889302        2.6412164714       -2.0869035236
