  62
        -98.93817963
 C         -1.5066038002       -1.0051242090        0.8954835297
 C         -2.1182355247       -0.4168056786       -0.2387500212
 C         -2.5554031218        0.9853805448       -0.0974002653
 C         -2.2853880520        1.6544388818        1.0348366853
 C         -2.6562151604        3.0648651018        1.4234811013
 C         -2.5719681879        4.1541771561        0.3487957239
 C         -1.4089803597        4.0019961327       -0.6424822576
 H         -0.8546842056        4.9416002480       -0.6902405440
 H         -0.7118346198        3.2316100895       -0.3061672510
 C         -1.8715808170        3.6527335210       -2.0582289305
 H         -1.0753888231        3.9158519241       -2.7589894682
 H         -2.7482641436        4.2550427648       -2.3094103226
 C         -2.1897160813        2.1749208182       -2.2738993602
 H         -2.5524690262        2.0494529419       -3.2974667898
 H         -1.2673883989        1.5940206938       -2.1822826421
 C         -3.2240360887        1.5781478952       -1.3041650013
 H         -3.9760296016        2.3141973857       -1.0280697595
 H         -3.7211629952        0.7471620580       -1.8124328264
 H         -3.5084465234        4.1932716180       -0.2059702235
 H         -2.4788569102        5.1061576636        0.8749126320
 H         -1.9853104912        3.3167563450        2.2488899822
 H         -3.6718546051        3.0450589097        1.8312597569
 O         -1.6206072015        1.0726332706        2.0746831182
 C         -1.2106271199       -0.2494679898        2.0297520192
 O         -0.5932678173       -0.6242894215        3.0475343478
 O         -2.3211482292       -1.0259470611       -1.3200405872
 C         -0.9616361086       -2.4259230694        0.8670289174
 C         -0.1298694994       -2.5742867876       -0.3828413369
 C         -0.3461306775       -3.5199155164       -1.3742623728
 C          0.4302105031       -3.5105222048       -2.5211825246
 C          1.4091743732       -2.5528813374       -2.7125845382
 C          1.6382394423       -1.6071435026       -1.7184843839
 C          0.8967099270       -1.6533443833       -0.5521455373
 H          1.0739550331       -0.9225233119        0.2230050934
 N          2.6165548650       -0.6130519147       -1.8645681800
 S          2.4054590258        0.8860415464       -1.1486490604
 O          1.0185894907        1.2774872904       -1.0808572128
 O          3.2769488795        1.7629675721       -1.9038178946
 C          3.0862221091        0.6702567095        0.4816041825
 C          2.3358370941        0.9905260789        1.5945482919
 C          2.8860979498        0.8062095858        2.8531209439
 C          4.1759317468        0.3133471039        2.9747355615
 C          4.9221473877        0.0053271514        1.8466669854
 C          4.3744690777        0.1833698952        0.5869426568
 H          4.9199864460       -0.0435552580       -0.3136903945
 H          5.9253254582       -0.3764780221        1.9469938940
 H          4.5990849689        0.1682415924        3.9561625792
 H          2.2947596791        1.0348683044        3.7254703793
 H          1.3292470068        1.3597558444        1.4647792227
 H          3.0310622781       -0.5466404074       -2.7822654456
 H          1.9845679629       -2.5263651462       -3.6255000954
 H          0.2506153484       -4.2448044474       -3.2920139385
 H         -1.1409372047       -4.2397662275       -1.2672595972
 H         -0.2799391381       -2.4800195290        1.7324570585
 C         -1.9936149195       -3.5239828510        1.0623930819
 C         -3.2475256425       -3.2667452384        1.8428264764
 C         -3.3214669349       -3.5262165669        0.3695057558
 H         -3.7211850888       -4.4738678357        0.0385318551
 H         -3.5419469399       -2.7037464485       -0.2912431230
 H         -3.5973682302       -4.0303352204        2.5212900110
 H         -3.4169753960       -2.2583844358        2.1927642262
 H         -1.5249827905       -4.4915388005        1.2151624974
