  62
        -98.94508665
 C          1.4750044106        1.5226903900       -0.3721130311
 C          2.7194009509        1.4203365101        0.3027897383
 C          3.6195748306        0.3589701698       -0.1584211718
 C          3.2506888700       -0.4278413205       -1.1852447914
 C          4.0569570795       -1.5531604908       -1.7748567814
 C          3.9100353398       -2.8847833405       -1.0254661709
 C          4.6013239905       -2.9453939201        0.3370568887
 H          4.6005930205       -3.9913972100        0.6498343091
 H          5.6423542605       -2.6397581903        0.2282976281
 C          3.9266312711       -2.1030417297        1.4289466488
 H          2.9097307110       -1.8490471797        1.1205044393
 H          3.8443941515       -2.6925724394        2.3446364391
 C          4.6707016614       -0.8160172797        1.7856590380
 H          5.6422958416       -1.0619113296        2.2198917076
 H          4.0890758719       -0.2828385094        2.5418415781
 C          4.8918035709        0.1348783899        0.6015750676
 H          5.6657830506       -0.2572271604       -0.0577832327
 H          5.2211085613        1.1004213000        0.9930297171
 H          4.3366910694       -3.6642199408       -1.6609396309
 H          2.8467015198       -3.1025082904       -0.9026049003
 H          3.6977534290       -1.6911091811       -2.7971170512
 H          5.1091333796       -1.2699033209       -1.8126065521
 O          2.0682858597       -0.2707542906       -1.8352415508
 C          1.1434099700        0.6855899997       -1.4357949807
 O          0.0968646896        0.6781311696       -2.1125556301
 O          3.0588236415        2.1796633503        1.2484433879
 C          0.4777203010        2.5470910803        0.1466738391
 C         -0.5384468187        1.8186522206        0.9954015198
 C         -0.1842626180        1.4756749210        2.2989033597
 C         -1.0635587577        0.7930005414        3.1159262504
 C         -2.3143842580        0.4328125214        2.6460484312
 C         -2.6759970886        0.7612722910        1.3453238413
 C         -1.7907098989        1.4506050806        0.5250249806
 H         -2.0904783394        1.6811814603       -0.4840577993
 N         -3.9513678289        0.4148579310        0.8588137220
 S         -4.0688356097       -0.4639241995       -0.5633361176
 O         -3.7252046402        0.3654949401       -1.6869949981
 O         -5.4182743898       -0.9889035093       -0.5480304368
 C         -2.9050957798       -1.7965393795       -0.3440868578
 C         -1.6186269400       -1.6682779698       -0.8232617985
 C         -0.7070770400       -2.6801188599       -0.5622446586
 C         -1.0921000897       -3.7930206096        0.1677917819
 C         -2.3926222795       -3.9080798593        0.6369623726
 C         -3.3077540595       -2.8998134793        0.3845757428
 H         -4.3299811093       -2.9537595890        0.7230523333
 H         -2.6916264793       -4.7774499591        1.2000063631
 H         -0.3761519097       -4.5743494896        0.3694537518
 H          0.3010171899       -2.5805857101       -0.9354438092
 H         -1.3410869702       -0.7930105001       -1.3900622289
 H         -4.5466167486       -0.0047938287        1.5597738825
 H         -3.0092123477       -0.0948775383        3.2817622917
 H         -0.7757459372        0.5394524017        4.1247952704
 H          0.7966389722        1.7523328910        2.6588182792
 H          1.0603403714        3.1952262104        0.8167419785
 C         -0.1327675495        3.4074650000       -0.9366240109
 C         -0.8082091991        4.6874576402       -0.5477763410
 C          0.5044236005        4.7220119798       -1.2696813417
 H          0.5191304500        5.0394430094       -2.3015921918
 H          1.3851362908        5.0074160999       -0.7128129922
 H         -1.6991994894        4.9815620901       -1.0813127006
 H         -0.8171333686        4.9477557305        0.5000709589
 H         -0.5559983500        2.8438287797       -1.7583843605
