  62
        -98.94072328
 C         -2.6453375018       -0.0951227467       -0.1787519874
 C         -2.5513633221       -1.2921590300       -0.9323492268
 C         -1.9824328978       -2.4528718362       -0.2418056087
 C         -1.5872722600       -2.3366395773        1.0386851424
 C         -0.9466805122       -3.4151890187        1.8684480802
 C          0.5697031239       -3.5166252980        1.6486364248
 C          0.9892896440       -4.1693748282        0.3301956317
 H          0.4545626658       -5.1117398374        0.2034115210
 H          2.0521275640       -4.4051519326        0.4145073823
 C          0.7776368530       -3.2810316970       -0.9040258872
 H          1.6645321667       -3.3276649240       -1.5416494495
 H          0.6669267361       -2.2424032322       -0.5807064722
 C         -0.4172947006       -3.6732439659       -1.7742987469
 H         -0.2405574843       -4.6576379849       -2.2141534082
 H         -0.4993464751       -2.9497969766       -2.5898292279
 C         -1.7621015965       -3.7051705812       -1.0366435550
 H         -1.8158365184       -4.5794333714       -0.3885198370
 H         -2.5586836289       -3.7705924206       -1.7821860494
 H          0.9828958321       -4.1039593810        2.4722091303
 H          0.9929304653       -2.5098849561        1.7059029266
 H         -1.4171727473       -4.3767420991        1.6601871456
 H         -1.1280156156       -3.1548834563        2.9134528275
 O         -1.7335654705       -1.1863575342        1.7440236281
 C         -2.1907476897       -0.0237932522        1.1414690744
 O         -2.1629981001        0.9720441219        1.8892122066
 O         -2.9024851445       -1.3773622847       -2.1411146979
 C         -3.0320517997        1.1732713455       -0.9263766923
 C         -1.9081568918        2.1581978420       -0.7232496482
 C         -2.0460060766        3.4185238684       -0.1600998047
 C         -0.9278522287        4.1903870503        0.1121626977
 C          0.3455388071        3.7184504538       -0.1516106449
 C          0.4879110630        2.4700071915       -0.7386591701
 C         -0.6296756750        1.7162730276       -1.0428815540
 H         -0.5057156553        0.7313049463       -1.4790885412
 N          1.7933492539        1.9271186657       -0.9369635683
 S          2.2122986459        1.0319128259        0.4463916057
 O          1.3739015991       -0.1422111487        0.5584640914
 O          2.2204643326        1.9353703279        1.5681244396
 C          3.8819962225        0.5461670464        0.0495464633
 C          4.8637675399        1.5183022984        0.0595591328
 C          6.1598932500        1.1636308519       -0.2777437792
 C          6.4504263932       -0.1494847681       -0.6183018776
 C          5.4541830214       -1.1136173243       -0.6234350692
 C          4.1547517513       -0.7647775461       -0.2886670690
 H          3.3483012166       -1.4809926366       -0.2748457152
 H          5.6822038345       -2.1338918519       -0.8868901665
 H          7.4601489593       -0.4235867584       -0.8803101764
 H          6.9378006624        1.9099383488       -0.2740351826
 H          4.5900798179        2.5222911445        0.3377489518
 H          1.7867230694        1.2689848486       -1.7083077233
 H          1.2239561955        4.2850349746        0.1100714607
 H         -1.0508104750        5.1617127129        0.5668597751
 H         -3.0260511819        3.7801095685        0.1061479036
 H         -3.0339323490        0.8672701065       -1.9867126642
 C         -4.4158450005        1.7289566090       -0.6412423854
 C         -5.5231655027        0.8266520289       -0.1867159648
 C         -4.9739711777        1.8654187518        0.7422202444
 H         -5.5860123766        2.7287783347        0.9597845401
 H         -4.3537860122        1.5496943531        1.5655133661
 H         -6.5095097311        0.9717924376       -0.6010009182
 H         -5.2738008976       -0.2075596278        0.0028404088
 H         -4.6900325109        2.5036249184       -1.3512729993
