  62
        -98.94459002
 C         -1.6587783501       -1.4517771202        0.1978083996
 C         -1.8197561608       -0.3746075901        1.1092224194
 C         -3.0483859510        0.4151249193        0.9777474489
 C         -3.9247223206        0.1202087188        0.0001985687
 C         -5.2450910608        0.7993906483       -0.2448810418
 C         -5.1464381411        2.1005469082       -1.0527782820
 C         -4.5602294118        3.2926909585       -0.2956708321
 H         -4.7514977320        4.1817729583       -0.8996697923
 H         -5.0924931421        3.4197242785        0.6475306678
 C         -3.0519110819        3.1916045992       -0.0290990316
 H         -2.6224694614        2.4299684392       -0.6846313013
 H         -2.5745800222        4.1422001593       -0.2775854916
 C         -2.6867922721        2.8655489996        1.4191502686
 H         -1.5986240421        2.8028697900        1.5012865389
 H         -3.0229758927        3.6742722995        2.0718958883
 C         -3.2749311218        1.5462945894        1.9359066586
 H         -4.3409354019        1.6627538990        2.1328713683
 H         -2.7731750819        1.2917572198        2.8730395288
 H         -4.5543019808        1.9106798482       -1.9507835818
 H         -6.1580462711        2.3621632877       -1.3713398724
 H         -5.8570142904        0.0906617779       -0.8070056119
 H         -5.7345013712        0.9993055382        0.7090432780
 O         -3.7083883000       -0.8809104912       -0.8899815611
 C         -2.5841973797       -1.6929898208       -0.8188782506
 O         -2.5503331091       -2.5640357109       -1.7090404404
 O         -0.9797546311       -0.1002788497        2.0087580796
 C         -0.4419676398       -2.3383894997        0.4022451701
 C          0.6960322303       -1.9714236994       -0.5194219996
 C          0.5948782408       -2.1090645897       -1.9001741696
 C          1.6637469609       -1.7811922394       -2.7136692694
 C          2.8434606105       -1.2988827589       -2.1728102891
 C          2.9522629301       -1.1522159286       -0.7956852791
 C          1.8833605500       -1.4986284089        0.0199315307
 H          1.9842398896       -1.3809574187        1.0883900407
 N          4.1359436497       -0.6673012280       -0.2111416388
 S          4.0355457389        0.5759130221        0.9086441809
 O          5.3886932387        1.0759757227        1.0148655612
 O          3.4393107187        0.0968375621        2.1276493108
 C          3.0053812287        1.7884164316        0.1043779904
 C          1.6327363386        1.7477956811        0.2464433300
 C          0.8649795985        2.6394634606       -0.4872025404
 C          1.4718321884        3.5530099207       -1.3342057204
 C          2.8527222384        3.5874586212       -1.4560333000
 C          3.6263796086        2.6913508617       -0.7380390696
 H          4.7026490586        2.6821097321       -0.8001250093
 H          3.3244320883        4.3027434413       -2.1102652899
 H          0.8632483283        4.2413345204       -1.8991040207
 H         -0.2086033215        2.6080756302       -0.3919040107
 H          1.1749404287        1.0396915310        0.9199611100
 H          4.8727215598       -0.4767580179       -0.8757802887
 H          3.6748161306       -1.0407077387       -2.8110403989
 H          1.5756090212       -1.8962906097       -3.7833735694
 H         -0.3301665890       -2.4668502302       -2.3253865898
 H         -0.1087304502       -2.1295441494        1.4287471402
 C         -0.7546743792       -3.8189442799        0.2980279903
 C          0.1672283410       -4.7999584794        0.9550757507
 C         -1.2006882892       -4.5617856598        1.5196227203
 H         -1.9482592389       -5.3328752301        1.4091895902
 H         -1.2813603197       -4.0055247597        2.4425280502
 H          0.3620753115       -5.7371793894        0.4569964710
 H          1.0145121307       -4.4049823890        1.4958917309
 H         -1.2023657088       -4.1011227902       -0.6456004598
