  62
        -98.92834795
 C         -2.3068476537       -1.2820745273        0.0822807878
 C         -2.4148437881        0.1214920203       -0.0551230747
 C         -3.7846446317        0.6798556075       -0.0711823023
 C         -4.8359299866       -0.1504197079        0.0393235242
 C         -6.3078974562        0.1770494893        0.0414244197
 C         -6.7888425860        1.1976643254       -1.0015047652
 C         -7.1976045435        2.5408234365       -0.3943677437
 H         -7.8991061020        3.0316371912       -1.0726076778
 H         -7.7275088565        2.3519788353        0.5415254748
 C         -6.0479600460        3.5132106071       -0.1364299293
 H         -6.4513081801        4.3614181508        0.4216833091
 H         -5.6790914287        3.8977842786       -1.0897955878
 C         -4.8633399592        2.9342957605        0.6398850786
 H         -5.2122850358        2.2917922541        1.4474099765
 H         -4.3292559483        3.7664248527        1.1034896064
 C         -3.8624259950        2.1726551994       -0.2418705799
 H         -4.0468317938        2.3978392620       -1.2965445976
 H         -2.8470488223        2.5250153853       -0.0339401258
 H         -7.6616899835        0.7752678149       -1.5019887375
 H         -6.0212747047        1.3422327856       -1.7602508807
 H         -6.5870554378        0.5115388230        1.0436430204
 H         -6.8096921436       -0.7802355683       -0.1171853376
 O         -4.6814237730       -1.4964725307        0.2035431043
 C         -3.4344788223       -2.0895486051        0.2446557089
 O         -3.4594994669       -3.3222665490        0.4325317797
 O         -1.4260541239        0.8928830623       -0.1587013491
 C         -0.9615787233       -1.9861572525        0.1151723840
 C          0.0098328654       -1.2314849828        0.9886246312
 C         -0.2700151098       -1.1106982869        2.3476526976
 C          0.5929000466       -0.4368475630        3.1894338325
 C          1.7622133464        0.1162405009        2.6976891990
 C          2.0462320543        0.0085211246        1.3417943192
 C          1.1730029865       -0.6624380465        0.4971321438
 H          1.4091625040       -0.7122541920       -0.5524644721
 N          3.2082228991        0.5876987906        0.8068607018
 S          3.9830787481       -0.1858267095       -0.4752756979
 O          3.3487520690        0.1880694199       -1.7138400101
 O          4.0800554064       -1.6049322510       -0.2118897101
 C          5.5941935657        0.5736100329       -0.3770876653
 C          6.6238032963       -0.0901472896        0.2627073545
 C          7.8616640592        0.5263530741        0.3583031193
 C          8.0470903374        1.7900958407       -0.1816676585
 C          7.0044152330        2.4434496451       -0.8221195254
 C          5.7648002152        1.8323187845       -0.9223825303
 H          4.9280111017        2.2965275055       -1.4180314558
 H          7.1529059179        3.4245588619       -1.2435764982
 H          9.0109945406        2.2679830034       -0.1056235950
 H          8.6750137162        0.0197570664        0.8523359729
 H          6.4354558938       -1.0744441894        0.6603460036
 H          3.8624988330        0.8887237542        1.5159395690
 H          2.4404668942        0.6389600311        3.3550508316
 H          0.3593477194       -0.3485617783        4.2399869575
 H         -1.1818997278       -1.5486978190        2.7319019789
 H         -1.1610539430       -2.9567728811        0.6005696424
 C         -0.3936593579       -2.3004727999       -1.2608909765
 C         -1.2917051533       -2.6049828040       -2.4213731636
 C         -0.4891073564       -1.3403939145       -2.4063708796
 H          0.3590910909       -1.2541603055       -3.0705687178
 H         -0.9989962950       -0.4058303933       -2.2331015079
 H         -1.0020783119       -3.3929405143       -3.1001572315
 H         -2.3577479314       -2.5368298852       -2.2592203357
 H          0.5208464515       -2.8841970893       -1.1947702514
