  62
        -98.93463696
 C         -2.3009844870       -0.7855942277       -0.1584606158
 C         -3.5468146105       -1.0920543050        0.4358890237
 C         -4.7261422099       -0.3955095516       -0.1052713061
 C         -4.5683242141        0.4851561635       -1.1112699221
 C         -5.5826827605        1.3027931215       -1.8834284882
 C         -6.9936440827        1.5147703424       -1.3398380692
 C         -7.0695614560        2.3395619822       -0.0559086470
 H         -6.7789839392        3.3679966102       -0.2845398212
 H         -8.1094268621        2.3539162054        0.2779241354
 C         -6.1867988874        1.8554430856        1.0918440039
 H         -6.3533464708        2.5197438760        1.9442272902
 H         -5.1354966442        1.9509490104        0.8119818773
 C         -6.4480961225        0.4248061491        1.5599041947
 H         -7.5066131302        0.3029028549        1.7971030624
 H         -5.8792055507        0.2721649642        2.4809838323
 C         -6.0341230893       -0.6826195585        0.5739171878
 H         -5.8881733988       -1.6047983805        1.1436846371
 H         -6.8132484651       -0.8723543005       -0.1604000496
 H         -7.5447055849        2.0569728529       -2.1131113126
 H         -7.4946821778        0.5605016463       -1.2072103100
 H         -5.1120448996        2.2772829159       -2.0470830548
 H         -5.6596626547        0.8287751818       -2.8682598786
 O         -3.3433402990        0.7443532638       -1.6563561506
 C         -2.1862877326        0.1375112359       -1.1957680815
 O         -1.1507126953        0.5006663463       -1.7848586495
 O         -3.6724257046       -1.9164604324        1.3813522007
 C         -1.0485229753       -1.4613348022        0.3701850153
 C         -0.1103143546       -0.4171795790        0.9228148614
 C         -0.5578495844        0.3922646155        1.9651320984
 C          0.2558046889        1.3723017057        2.4978123873
 C          1.5362401632        1.5623601303        2.0076104033
 C          1.9899995096        0.7652518886        0.9638110668
 C          1.1698729576       -0.2214125321        0.4321757151
 H          1.5484557785       -0.8246209276       -0.3753726445
 N          3.2700783673        0.9640195903        0.4233172751
 S          4.1297120695       -0.3545483087       -0.1801751545
 O          3.6718605910       -0.6550549537       -1.5130187679
 O          4.0965913166       -1.4455164019        0.7684674905
 C          5.7658596946        0.3515625693       -0.2545822709
 C          6.0690442152        1.1987095904       -1.3040198504
 C          7.3269072623        1.7777067329       -1.3555811672
 C          8.2555196123        1.5020942301       -0.3625447766
 C          7.9377433595        0.6482288119        0.6828037179
 C          6.6806751545        0.0668115284        0.7413020469
 H          6.3911557147       -0.6082676776        1.5304588608
 H          8.6629898058        0.4335144167        1.4510177898
 H          9.2340022288        1.9537118259       -0.4057660323
 H          7.5782090798        2.4398627008       -2.1683999259
 H          5.3180712888        1.3758709811       -2.0564618714
 H          3.8527059539        1.5591349741        0.9960256807
 H          2.1739537768        2.3281393863        2.4224301712
 H         -0.1053675766        1.9908256346        3.3057508998
 H         -1.5577605138        0.2397163193        2.3486263094
 H         -1.3870946370       -2.0920463311        1.2056900010
 C         -0.4221458890       -2.3479398220       -0.6837990819
 C          0.4918528123       -3.4618416707       -0.2722065935
 C         -0.8722959620       -3.7711430523       -0.8098250454
 H         -0.9531457000       -4.2002103346       -1.7972174357
 H         -1.6274235371       -4.1163334100       -0.1188085346
 H          1.3551024900       -3.6719436611       -0.8861835705
 H          0.6676665475       -3.5969536158        0.7845626759
 H         -0.1907758044       -1.8146987031       -1.5996839395
