  62
        -98.94643277
 C          1.5495769059        1.1048765729        0.0267729762
 C          2.5965007150        0.8124037979        0.9379569866
 C          3.3122626237       -0.4507864194        0.7186956481
 C          2.9198552221       -1.2627507798       -0.2796015632
 C          3.5800813569       -2.5616667885       -0.6385340385
 C          4.6785297481       -2.3536239473       -1.6906876701
 C          5.6523074645       -1.2247890401       -1.3525680287
 H          5.1169386477       -0.2727733505       -1.3744384841
 H          6.3994713963       -1.1906194746       -2.1484779111
 C          6.3562861623       -1.3781054926        0.0029551343
 H          7.4174238652       -1.1549344009       -0.1266149966
 H          6.2828051599       -2.4113526706        0.3441640779
 C          5.8351701745       -0.4446850444        1.0974002901
 H          5.8207558826        0.5830544183        0.7256665805
 H          6.5365932719       -0.4788729869        1.9352567243
 C          4.4441218959       -0.7777367865        1.6514672182
 H          4.2852738201       -0.1633514290        2.5424342569
 H          4.4089383979       -1.8277792437        1.9484068453
 H          4.2037303376       -2.1205021461       -2.6466441767
 H          5.2290766273       -3.2891728416       -1.8048704987
 H          4.0028658100       -3.0086088500        0.2589992654
 H          2.8241429268       -3.2344474616       -1.0470506630
 O          1.8930187529       -0.9641014235       -1.1138674493
 C          1.1920578679        0.2286805859       -0.9978011201
 O          0.2992322446        0.3705158354       -1.8548281387
 H         -1.5102927302        2.0360929399       -1.2552979895
 C         -1.6589936875        1.8112287038       -0.2115118096
 C         -0.6201335170        1.9851744350        0.6892720233
 C         -0.8371465175        1.6653121642        2.0269297203
 C         -2.0622823518        1.1841094323        2.4494062434
 C         -3.0886186173        0.9835212203        1.5421621736
 C         -2.8750789021        1.2871310105        0.2045128911
 N         -3.8879244028        1.0213512662       -0.7358380872
 S         -4.6033804428       -0.4897163738       -0.6386107115
 O         -4.9821071619       -0.8266212397       -1.9935740326
 O         -5.6876032409       -0.4400686633        0.3124846346
 C         -3.3468944658       -1.6109550924       -0.0394908971
 C         -3.6319956200       -2.4160776883        1.0453123502
 C         -2.6612571759       -3.2879682073        1.5107615951
 C         -1.4231893095       -3.3375520156        0.8889306597
 C         -1.1537924066       -2.5248534745       -0.2008999117
 C         -2.1217969450       -1.6539573275       -0.6746325612
 H         -1.9094288218       -1.0084696749       -1.5124644454
 H         -0.1899927199       -2.5474815600       -0.6852743637
 H         -0.6627705459       -4.0099560323        1.2540916000
 H         -2.8700931054       -3.9212170042        2.3579421555
 H         -4.6039750985       -2.3378021351        1.5049123809
 H         -3.6072753319        1.2174442751       -1.6862659411
 H         -4.0445680124        0.5887699983        1.8467202323
 H         -2.2176890453        0.9484530072        3.4910249919
 H         -0.0242302689        1.7837346821        2.7293977113
 C          0.7608754514        2.3881703427        0.2374974275
 H          1.2600742287        2.9056582786        1.0670916701
 C          0.7772224282        3.2875132552       -0.9799461998
 C          0.3244070849        4.7097050887       -0.8435173912
 C          1.7756539944        4.4020187801       -1.0541114787
 H          2.2189399915        4.6332074690       -2.0112158186
 H          2.4507705578        4.5254648739       -0.2200340379
 H          0.0125417231        5.0397156443        0.1358640876
 H         -0.2305276086        5.1559872902       -1.6545737077
 H          0.5500296527        2.7700546990       -1.9039696599
 O          2.9154752971        1.5735293242        1.8891770288
