  62
        -98.93990154
 C         -2.6353071546       -0.1990622195        0.5551738800
 C         -2.1717865645        0.2475202880       -0.7085663329
 C         -1.9835289647        1.6999821264       -0.8483072163
 C         -2.2303731194        2.5054095492        0.1992160056
 C         -2.0827927828        3.9990689579        0.1924432647
 C         -0.6904291525        4.4405453125        0.6605081620
 C          0.4637787857        3.7200566783       -0.0371975646
 H          0.4803841012        2.6707522822        0.2661122153
 H          1.3905586085        4.1689632677        0.3283464185
 C          0.4353752464        3.7971864009       -1.5696581334
 H          1.4472777724        4.0033847182       -1.9250865106
 H         -0.1983454367        4.6258328415       -1.8902780549
 C         -0.0208009510        2.5105114989       -2.2617582096
 H          0.5266999023        1.6569984261       -1.8499510444
 H          0.2415606737        2.5824125316       -3.3213626223
 C         -1.5231463144        2.2079099640       -2.1849373898
 H         -1.7356434324        1.4065716494       -2.8990234038
 H         -2.0926017878        3.0928050376       -2.4798619099
 H         -0.6096088646        4.2526905999        1.7336426663
 H         -0.6007887176        5.5162803061        0.4953151247
 H         -2.8307979298        4.4170516598        0.8690053831
 H         -2.2714651169        4.3677743121       -0.8141405152
 O         -2.6337790624        2.0379645567        1.4090907809
 C         -2.8112082711        0.6814338678        1.6240643575
 O         -3.1257630655        0.3872077528        2.7962031390
 O         -1.9446712457       -0.5147228531       -1.6832595278
 C         -2.8237121162       -1.6791534844        0.8563708711
 C         -1.6130083752       -2.4203699048        0.3465145546
 C         -1.6480017855       -3.4475782802       -0.5863309703
 C         -0.4725090139       -3.9987568137       -1.0680750863
 C          0.7586403960       -3.5334175615       -0.6411004135
 C          0.7995909208       -2.5275702833        0.3114210785
 C         -0.3746010857       -1.9946417773        0.8107462145
 H         -0.3297975599       -1.1867149897        1.5328339322
 N          2.0629171851       -1.9849497052        0.7098239311
 S          2.2905968762       -0.4911241253       -0.0611409436
 O          1.5314088797        0.5410265940        0.6147655323
 O          2.0440042587       -0.6705156798       -1.4681122943
 C          4.0342793484       -0.2320695565        0.2089639484
 C          4.9144762302       -1.1089210777       -0.3955723463
 C          6.2735627638       -0.9482445702       -0.1811751079
 C          6.7275095608        0.0815847615        0.6301272268
 C          5.8320475376        0.9541425922        1.2287702292
 C          4.4702745765        0.7969010772        1.0195492076
 H          3.7368403598        1.4514742948        1.4629751827
 H          6.1868182118        1.7547764210        1.8577261260
 H          7.7860166777        0.2054983913        0.7959833215
 H          6.9732515712       -1.6244158579       -0.6453129533
 H          4.5135539471       -1.8886236251       -1.0214208322
 H          2.0767014785       -1.7960034609        1.7051890198
 H          1.6795632273       -3.9235681006       -1.0421538872
 H         -0.5175828941       -4.7841970038       -1.8071824915
 H         -2.5961880155       -3.7887786608       -0.9690629073
 H         -2.8232182972       -1.7447832338        1.9575350191
 C         -4.1464603163       -2.2646058452        0.3887290628
 C         -5.3674724845       -1.4031164739        0.2701998073
 C         -4.7273553758       -1.9691234687       -0.9599101741
 H         -5.2389535618       -2.7656028999       -1.4803671558
 H         -4.1743526363       -1.3079799691       -1.6075350591
 H         -6.3144814161       -1.8083523596        0.5935292133
 H         -5.2528070576       -0.3469218782        0.4678701212
 H         -4.3029037744       -3.2660565169        0.7779718829
