  62
        -98.94593747
 C         -2.1126124425       -1.4950514648        0.0023660408
 C         -1.8333157209       -0.3762652468       -0.8191521671
 C         -2.8947097907        0.6387407516       -0.8935655756
 C         -4.0459931102        0.4420919157       -0.2257256263
 C         -5.1856113323        1.4173829626       -0.1753025695
 C         -5.0495102042        2.3700993699        1.0208966837
 C         -3.6669246210        3.0100138720        1.1479238020
 H         -3.6996639728        3.6844120937        2.0063583646
 H         -2.9338075548        2.2332801423        1.3777860215
 C         -3.2096246331        3.7856993040       -0.0951559079
 H         -2.7807630770        4.7371921057        0.2257780018
 H         -4.0695507931        4.0152563318       -0.7255358551
 C         -2.1428838764        3.0731646536       -0.9286611735
 H         -1.3265169091        2.7501668409       -0.2780379998
 H         -1.7352902147        3.7936596635       -1.6427745698
 C         -2.6260633415        1.8578349244       -1.7300599310
 H         -3.5072336182        2.1270095202       -2.3159439670
 H         -1.8283417197        1.5730881275       -2.4222324475
 H         -5.8071958275        3.1504186498        0.9279601114
 H         -5.2521545561        1.8081602486        1.9356765393
 H         -5.2139243966        1.9845408490       -1.1036340946
 H         -6.1155716204        0.8548663228       -0.0760295338
 O         -4.2872927620       -0.6609387151        0.5287065800
 C         -3.3236262226       -1.6442606929        0.6782439327
 O         -3.6584861068       -2.5862157826        1.4250201257
 O         -0.7601335033       -0.2300575024       -1.4587445145
 C         -1.0672621955       -2.5826626817        0.1817742996
 C          0.1901232355       -1.9607230966        0.7378130765
 C          0.1196624358       -1.3014636765        1.9629554185
 C          1.2321007013       -0.6830816579        2.4996928207
 C          2.4391143161       -0.6979396112        1.8215516227
 C          2.5169235203       -1.3448513744        0.5962403036
 C          1.4006911246       -1.9812180564        0.0662866312
 H          1.4811459351       -2.4780205784       -0.8874159339
 N          3.7304583740       -1.3463024264       -0.1095150382
 S          4.6254597588        0.0657948030       -0.1499059648
 O          5.3787448069       -0.0035295126       -1.3829278786
 O          5.4126679895        0.1719020458        1.0544136527
 C          3.4469879943        1.4049478396       -0.2137074285
 C          3.5416798803        2.4337929368        0.7016402719
 C          2.6283958308        3.4737038494        0.6388816416
 C          1.6386062072        3.4650465071       -0.3316717928
 C          1.5572977539        2.4246591842       -1.2441644197
 C          2.4696283865        1.3844154956       -1.1883170207
 H          2.4148377617        0.5644479177       -1.8855380065
 H          0.7792238392        2.4037734436       -1.9896372765
 H          0.9246048859        4.2724275818       -0.3776389893
 H          2.6886754581        4.2841997770        1.3473752422
 H          4.3230432639        2.3970558307        1.4435541866
 H          3.6763216522       -1.7729989727       -1.0226187954
 H          3.3179343285       -0.2220796767        2.2255423916
 H          1.1611137294       -0.1799613414        3.4521184418
 H         -0.8270565736       -1.2786617218        2.4861469280
 H         -1.4710531652       -3.2733411814        0.9353122353
 C         -0.8652471168       -3.3404022096       -1.1133398364
 C         -0.3061155511       -4.7305230141       -1.0888696917
 C         -1.7519771030       -4.5092303613       -1.4151548144
 H         -2.0806382023       -4.6581000779       -2.4328652809
 H         -2.4930892989       -4.7746080813       -0.6752754845
 H          0.3565692928       -5.0367347212       -1.8844075470
 H         -0.0625268784       -5.1538189272       -0.1261413896
 H         -0.5980412992       -2.6946064667       -1.9418407496
