  62
        -98.93800788
 C         -1.5361559971       -0.1126286487       -0.7003381791
 C         -2.8095361571       -0.5478841335       -1.1415525488
 C         -3.9042674465       -0.4590772347       -0.1645574642
 C         -3.6368885628       -0.0160033592        1.0773744771
 C         -4.6526947079        0.1968337548        2.1637316520
 C         -5.4330690193        1.5020655552        1.9072084727
 C         -6.9189396696        1.3003107269        1.6091955229
 H         -7.4399138195        1.0713341088        2.5412366872
 H         -7.3097209524        2.2502266795        1.2382860320
 C         -7.2538667214        0.1959384500        0.6020156808
 H         -8.2916990179        0.3474730031        0.2977614506
 H         -7.2139189322       -0.7759183560        1.0962774984
 C         -6.3747925645        0.1443601564       -0.6542043012
 H         -7.0141362913       -0.0961757052       -1.5060187749
 H         -5.9326482492        1.1204134929       -0.8546150761
 C         -5.2629262114       -0.9206230387       -0.6149197556
 H         -5.5859143073       -1.7630690402        0.0031690773
 H         -5.1065143347       -1.2995459492       -1.6292725601
 H         -4.9607780225        2.0242976186        1.0726116580
 H         -5.3444070565        2.1553105756        2.7765795829
 H         -5.3302980528       -0.6531560191        2.2050506850
 H         -4.1104112827        0.2567541420        3.1076899679
 O         -2.3963879584        0.3706706850        1.4722323046
 C         -1.3149121684        0.3348658758        0.6022051994
 O         -0.2465139778        0.7303646615        1.1041744595
 H          2.2087361077       -0.0343594010       -0.7112497823
 C          1.8340879228       -1.0415607560       -0.7367693651
 C          0.5574615880       -1.2945407484       -1.2100151277
 C          0.1058812005       -2.6123331205       -1.2414508241
 C          0.9145630671       -3.6447711300       -0.8090202213
 C          2.1836952786       -3.3839527876       -0.3192437690
 C          2.6412473315       -2.0740592763       -0.2775300510
 N          3.9289189665       -1.7638079369        0.1989612951
 S          4.0502413429       -0.6387555059        1.4465693690
 O          5.3690789380       -0.8703888226        2.0012546465
 O          2.9489951916       -0.7629583066        2.3722744858
 C          4.0447140213        0.9447533407        0.6354708259
 C          2.9936935744        1.8192238646        0.8303226252
 C          3.0215926030        3.0449084792        0.1821074483
 C          4.0883160512        3.3709029546       -0.6415223120
 C          5.1361300792        2.4803402048       -0.8229384022
 C          5.1178917188        1.2548386545       -0.1771637730
 H          5.9133063204        0.5361620111       -0.2829393715
 H          5.9626952681        2.7372007297       -1.4655904053
 H          4.1000405204        4.3246365331       -1.1456695278
 H          2.2027616647        3.7336014062        0.3199641768
 H          2.1631333490        1.5180034530        1.4507895782
 H          4.4886270760       -2.5762527473        0.4198344573
 H          2.8131710980       -4.1888943490        0.0300226063
 H          0.5536743022       -4.6618848619       -0.8442500419
 H         -0.8905416760       -2.8131223351       -1.6105504349
 C         -0.3697157232       -0.1967340272       -1.6714342067
 H         -0.8125146578       -0.5098457310       -2.6277354111
 C          0.3095232721        1.1427530116       -1.8567351732
 C          1.2224815865        1.3574732855       -3.0258156920
 C         -0.1130028299        2.0356065876       -2.9828214219
 H         -0.1468410718        3.1005363802       -2.8094967984
 H         -0.8908489842        1.6760329591       -3.6405630203
 H          1.3513427520        0.5356099343       -3.7135001552
 H          2.1096232286        1.9550583293       -2.8802344534
 H          0.5699346356        1.6175483285       -0.9187866697
 O         -3.0202690155       -0.9928079603       -2.3021574817
