  62
        -98.94876783
 C         -0.9419732459       -1.2771372048        0.0487691826
 C         -1.9061174616       -1.0184264237        1.0497620923
 C         -2.6344050293        0.2507204984        0.9273821226
 C         -2.3250433981        1.0905298407       -0.0774357634
 C         -3.0206324973        2.3935418452       -0.3450598507
 C         -4.1959608499        2.2068122031       -1.3145545299
 C         -5.1356119122        1.0644588021       -0.9290076957
 H         -5.9440210857        1.0456755684       -1.6629512592
 H         -4.5991941833        0.1169373754       -1.0158635765
 C         -5.7297326110        1.1803783917        0.4816563391
 H         -5.6332414760        2.2051135282        0.8423197254
 H         -6.7967963038        0.9533156039        0.4326438084
 C         -5.1190473804        0.2239771727        1.5079391992
 H         -5.7498299972        0.2346048914        2.4008949873
 H         -5.1305311822       -0.7946454379        1.1118473564
 C         -3.6881062684        0.5483905127        1.9565958599
 H         -3.4554039087       -0.0881898891        2.8157278388
 H         -3.6287039079        1.5898641567        2.2806853030
 H         -4.7571750907        3.1418262745       -1.3612134783
 H         -3.7946842114        1.9989279252       -2.3088500889
 H         -2.3013410135        3.0847440211       -0.7864797689
 H         -3.3737532762        2.8097793768        0.5965724544
 O         -1.3703284979        0.8220960534       -1.0030734178
 C         -0.6548952722       -0.3655269423       -0.9674670466
 O          0.1885756523       -0.4870936281       -1.8743366237
 O         -2.1465671461       -1.8125636540        2.0010634042
 C         -0.1569651745       -2.5726491872        0.0982726474
 C          1.3289235549       -2.3117785431        0.1223407198
 C          2.2478948836       -3.1672013881       -0.4746537556
 C          3.6033576896       -2.8962652811       -0.4121377894
 C          4.0709444049       -1.7647330388        0.2304513526
 C          3.1600126331       -0.9055827395        0.8346361062
 C          1.8056174311       -1.1922024937        0.7909521431
 H          1.1136955124       -0.5201285265        1.2771655517
 N          3.5928895781        0.2551285275        1.4966615178
 S          2.7017180217        1.6599479244        1.4105316360
 O          3.6371782187        2.6921163675        1.8121514887
 O          1.5126143172        1.5578815932        2.2216242708
 C          2.2577053745        1.9274739209       -0.2967133038
 C          1.1020603496        2.6359910917       -0.5518105720
 C          0.7672820675        2.9286300678       -1.8631870375
 C          1.5870691793        2.5030139509       -2.8948185502
 C          2.7444157534        1.7925763048       -2.6232732681
 C          3.0911560468        1.5076207919       -1.3130172571
 H          3.9880139878        0.9551218130       -1.0857794044
 H          3.3761364803        1.4535076372       -3.4283999211
 H          1.3166578870        2.7196147818       -3.9162539395
 H         -0.1371083252        3.4757798208       -2.0771305845
 H          0.4805746119        2.9284863647        0.2808803403
 H          4.5836811756        0.4407323503        1.4403849193
 H          5.1274093820       -1.5466603508        0.2686739381
 H          4.3050274934       -3.5696302556       -0.8801388811
 H          1.9007713216       -4.0473716653       -0.9906128327
 H         -0.4363236914       -3.0497994733        1.0505889383
 C         -0.5796398550       -3.4805104439       -1.0408239195
 C         -0.6262125664       -4.9674153978       -0.8572303741
 C         -1.8997513335       -4.1836127657       -0.9484143718
 H         -2.5018970606       -4.2729498792       -1.8401402120
 H         -2.4754191364       -4.0339755135       -0.0463744770
 H         -0.3558014640       -5.5987522669       -1.6902761044
 H         -0.3463875278       -5.3627114205        0.1076868031
 H         -0.2866915415       -3.0906354032       -2.0093443769
