  62
        -98.94314395
 C         -1.1475187854       -1.2635335963       -0.0792440258
 C         -1.9202821065       -0.7097357463        0.9754069740
 C         -2.8190854888        0.3950321424        0.6194738092
 C         -2.8319499151        0.8454005608       -0.6476083983
 C         -3.7405398829        1.9206775806       -1.1677285837
 C         -5.0463299441        1.3260299807       -1.7147397244
 C         -5.7194639449        0.3318152719       -0.7683824884
 H         -6.6433484551        0.0016932137       -1.2483977058
 H         -5.0813314253       -0.5485456294       -0.6623618392
 C         -6.0398887159        0.8950615264        0.6232651434
 H         -6.0236955383        1.9851894145        0.5943633470
 H         -7.0531585014        0.5940294708        0.8975336143
 C         -5.1121098327        0.4030530527        1.7358381146
 H         -5.5547773353        0.6828744727        2.6954529761
 H         -5.0538557935       -0.6879253434        1.7089512999
 C         -3.6849097896        0.9645630692        1.7078532575
 H         -3.2015436358        0.6906589637        2.6499354240
 H         -3.7264615113        2.0537928695        1.6424806978
 H         -5.7339914401        2.1450487275       -1.9333905786
 H         -4.8257680609        0.8093584354       -2.6518011870
 H         -3.2298009240        2.4461306204       -1.9764372259
 H         -3.9588143046        2.6260103520       -0.3682482231
 O         -2.0390852293        0.3303545029       -1.6184531879
 C         -1.1904789612       -0.7410252278       -1.3720896523
 O         -0.5495296518       -1.1042468795       -2.3770477803
 O         -1.8694780290       -1.1344372779        2.1594464358
 C         -0.2728592389       -2.4548027006        0.2765195338
 C          1.1370142627       -2.0163864445        0.5742086020
 C          1.7492472935       -2.3222716453        1.7834313732
 C          3.0334558955       -1.8816376027        2.0567441417
 C          3.7305062158       -1.1229422127        1.1329892855
 C          3.1243871245       -0.8116078065       -0.0765400569
 C          1.8418159722       -1.2584489072       -0.3514434798
 H          1.3772659835       -1.0106943003       -1.2945375914
 N          3.8073926255        0.0083304098       -1.0084882863
 S          3.9457051330        1.6003564451       -0.4973393454
 O          4.2415173474        2.3765533157       -1.6794978529
 O          4.9182720155        1.6591997796        0.5636572075
 C          2.3284183831        2.0090200019        0.1359439829
 C          1.3605192818        2.4400469402       -0.7486225791
 C          0.0835114609        2.6908690952       -0.2746344584
 C         -0.2061298812        2.4898314546        1.0658908169
 C          0.7741303354        2.0471610417        1.9396821010
 C          2.0558536615        1.8047609198        1.4736767346
 H          2.8470032250        1.4674445994        2.1229870971
 H          0.5394003608        1.8834917870        2.9790135731
 H         -1.2030752810        2.6750489542        1.4321914440
 H         -0.6831529762        3.0321775301       -0.9517489230
 H          1.6226730986        2.5831899633       -1.7850844418
 H          3.3650959560       -0.0006416123       -1.9182171721
 H          4.7209409093       -0.7489446437        1.3357368138
 H          3.4947768204       -2.1266144633        3.0011633874
 H          1.2052870787       -2.8955115034        2.5196242844
 H         -0.7020188684       -2.8400913203        1.2146083768
 C         -0.3505868273       -3.5766618261       -0.7513046895
 C          0.8015695698       -4.0143884811       -1.6006750419
 C          0.3290347215       -4.8862194595       -0.4787397925
 H         -0.1925062162       -5.8016026672       -0.7135717597
 H          0.9531344412       -4.9451720186        0.4003326454
 H          0.5877407758       -4.3095418892       -2.6167979500
 H          1.7474839167       -3.5085923246       -1.4881219888
 H         -1.3293352988       -3.6280725808       -1.2181295441
