  62
        -98.94839251
 C         -1.2291463504       -1.5035000100        0.4947143605
 C         -2.1870210503       -1.2271485701       -0.5100099396
 C         -3.2678866103       -0.3081210601       -0.1272384398
 C         -3.2879355505        0.2094808500        1.1143506802
 C         -4.2974547905        1.2011649800        1.6140557800
 C         -3.8123521705        2.6418697800        1.4015990599
 C         -3.3040944004        2.9253958499       -0.0124561901
 H         -3.0315521204        3.9828452199       -0.0510179102
 H         -2.3819477704        2.3625967399       -0.1815354799
 C         -4.3138974003        2.6163788298       -1.1268769101
 H         -5.3201660903        2.5645206898       -0.7088513302
 H         -4.3018147602        3.4403243997       -1.8435660402
 C         -4.0250650902        1.3374614397       -1.9152448100
 H         -2.9820254602        1.3398971597       -2.2435039199
 H         -4.6514511001        1.3422920196       -2.8114403701
 C         -4.2936453903        0.0216357098       -1.1741407999
 H         -5.2971504603        0.0379648698       -0.7443396500
 H         -4.2444109302       -0.7886171903       -1.9074889098
 H         -4.6338822006        3.3211838800        1.6379510598
 H         -2.9939330506        2.8404580901        2.0978746200
 H         -5.2412759705        1.0443116700        1.0954611599
 H         -4.4468501506        1.0325475101        2.6820579200
 O         -2.3521186406       -0.0816590299        2.0535404603
 C         -1.2830886905       -0.9107263599        1.7553173005
 O         -0.4592528506       -1.0442941398        2.6844978905
 O         -2.1414599102       -1.7171849002       -1.6687428496
 C         -0.0361213404       -2.3854169600        0.1778424307
 C          0.7947010597       -1.7577495601       -0.9168831493
 C          1.4484328498       -2.4885450102       -1.9011794891
 C          2.2150330799       -1.8426530003       -2.8562351391
 C          2.3687376899       -0.4677826303       -2.8392426992
 C          1.7234176598        0.2708506598       -1.8544058294
 C          0.9431828197       -0.3783617701       -0.9125016994
 H          0.4244704597        0.2095606899       -0.1714971695
 N          1.8458272698        1.6671664598       -1.7814234495
 S          1.9147515696        2.3926188699       -0.2745542695
 O          0.6069764296        2.4284753400        0.3298493403
 O          2.5254777196        3.6805095999       -0.5285262596
 C          3.0387642196        1.3690868800        0.6599014707
 C          2.5871056795        0.5465788301        1.6710392607
 C          3.4965048994       -0.2753011698        2.3197734608
 C          4.8319285995       -0.2617465798        1.9507760210
 C          5.2725667695        0.5785907001        0.9390559209
 C          4.3691226596        1.3989079300        0.2852275208
 H          4.6734577497        2.0739615700       -0.4981097793
 H          6.3130175296        0.5928818101        0.6573872810
 H          5.5319873394       -0.9075158098        2.4569415311
 H          3.1434512494       -0.9241297797        3.1057037009
 H          1.5429793594        0.5438085101        1.9441110406
 H          2.5048904298        2.0743153398       -2.4283000295
 H          2.9708833200        0.0311314497       -3.5827719992
 H          2.7085346100       -2.4205598503       -3.6226707590
 H          1.3506946199       -3.5615205902       -1.9254172191
 H          0.5786617296       -2.4033192299        1.0908344708
 C         -0.4792723403       -3.7989279501       -0.1380134592
 C          0.3939688797       -4.9629980600        0.2195511810
 C         -0.8622906504       -4.7032881600        0.9936311408
 H         -1.7015345104       -5.3692302400        0.8606753708
 H         -0.7760154905       -4.3059238099        1.9948528608
 H          0.4162081097       -5.8137709501       -0.4446908089
 H          1.3362565996       -4.7528781200        0.7026060010
 H         -1.0679558702       -3.8559875102       -1.0459883693
