  62
        -98.93770008
 C         -0.1834272442       -1.8794989225        0.1185662959
 C         -1.0661893917       -1.1711105277        0.9634082881
 C         -2.3578178512       -0.7640995480        0.3800064111
 C         -2.5938752613       -1.0194033682       -0.9195922007
 C         -3.8212367937       -0.7040298835       -1.7366165176
 C         -4.4247631633        0.6957312959       -1.5478543605
 C         -5.7704777075        0.6860498628       -0.8209966071
 H         -6.3204459534        1.5905820785       -1.0900032105
 H         -6.3528703760       -0.1658300055       -1.1781144279
 C         -5.6849708347        0.6343826746        0.7035045631
 H         -5.3356052945        1.5978498126        1.0802302189
 H         -6.6974806406        0.4847685239        1.0858199885
 C         -4.7804710068       -0.4607028593        1.2727514189
 H         -4.9015502582       -1.3872401724        0.7130136617
 H         -5.1058587806       -0.6632024921        2.2954987396
 C         -3.2968576979       -0.0662994084        1.3253484084
 H         -3.1919885566        1.0126013702        1.1882864495
 H         -2.8945364444       -0.2814445013        2.3202759868
 H         -4.5806057318        1.1279826897       -2.5373427649
 H         -3.7127191310        1.3291892583       -1.0230637924
 H         -4.5775233857       -1.4667395199       -1.5356241326
 H         -3.5118865820       -0.8400733641       -2.7752187998
 O         -1.6880205516       -1.6624038662       -1.7112986149
 C         -0.4765764289       -2.1171414090       -1.2233775856
 O          0.2321318694       -2.6988315480       -2.0659454548
 O         -0.7928959973       -0.8941324563        2.1637600268
 C          1.1504379340       -2.3507937663        0.6681864082
 C          2.2691084689       -1.6696820740       -0.0799948192
 C          3.3178426657       -2.3486170342       -0.6852752666
 C          4.2974981532       -1.6519875687       -1.3716202745
 C          4.2620211978       -0.2726651928       -1.4523103969
 C          3.2206655567        0.4174330911       -0.8411799394
 C          2.2345312041       -0.2826792446       -0.1673131280
 H          1.4265298423        0.2574168200        0.3071753233
 N          3.1401916104        1.8161088814       -0.9153757570
 S          2.6037835058        2.6888223972        0.4050657265
 O          3.1340643880        4.0207510495        0.1948551322
 O          2.9734272547        2.0576137003        1.6502178212
 C          0.8339974074        2.7803225656        0.2416548198
 C          0.0720854655        2.8664518966        1.3895322747
 C         -1.2922626749        3.0787726102        1.2761267989
 C         -1.8683577092        3.1973520662        0.0210128148
 C         -1.0938607620        3.0828860967       -1.1232845695
 C          0.2726946698        2.8805479017       -1.0156582481
 H          0.9052037436        2.7986468407       -1.8840812450
 H         -1.5488541443        3.1598363319       -2.0978603312
 H         -2.9272022260        3.3880785955       -0.0665031712
 H         -1.8948576566        3.1550808794        2.1673243151
 H          0.5587584330        2.7628534442        2.3462641749
 H          3.9185971795        2.2674497968       -1.3733157969
 H          5.0286647645        0.2694407914       -1.9848129552
 H          5.1032303355       -2.1915578108       -1.8458470096
 H          3.3649538581       -3.4233940997       -0.6285773793
 H          1.1800576534       -2.0006115969        1.7109356803
 C          1.2325115300       -3.8621830130        0.6560744735
 C          2.1233111161       -4.5748350437        1.6280661177
 C          0.6353855352       -4.6299533048        1.7956467978
 H          0.1246572245       -5.5567559988        1.5815897195
 H          0.1883271343       -4.0603829247        2.5973903354
 H          2.6346630590       -5.4676784236        1.3013799095
 H          2.6894353715       -3.9707497259        2.3210694578
 H          1.1211594154       -4.2779630436       -0.3389228270
