  62
        -98.93898710
 C          1.9315708117        1.3764560203        0.2977297620
 C          2.5800730852        0.7374343575       -0.7841714847
 C          3.7532270746       -0.0910474280       -0.4487217261
 C          4.1338239682       -0.2137035212        0.8366852766
 C          5.3023748615       -0.9456014049        1.4634006032
 C          6.0734192987       -2.0039981903        0.6786931162
 C          5.2738682611       -3.2621047925        0.3418745936
 H          5.8924724415       -3.8993380411       -0.2937769101
 H          5.0765943605       -3.8081245247        1.2679851178
 C          3.9323298192       -3.0267975084       -0.3483649231
 H          3.4753805647       -4.0028804333       -0.5337918318
 H          3.2636342708       -2.4842961781        0.3235527630
 C          4.0024986486       -2.2863474502       -1.6827936185
 H          4.6971772474       -2.7990568195       -2.3508746265
 H          3.0078804389       -2.3315567250       -2.1353076302
 C          4.4044784449       -0.8032075212       -1.5986195508
 H          5.4849333786       -0.6863196846       -1.5625423951
 H          4.0496124441       -0.3071257885       -2.5066571743
 H          6.9134700703       -2.3070619727        1.3095920396
 H          6.4972967370       -1.5712754801       -0.2225850860
 H          6.0071241881       -0.1675002145        1.7770580126
 H          4.9124397139       -1.3955028788        2.3820422332
 O          3.4649753566        0.4144819287        1.8487554994
 C          2.3535944909        1.2047934208        1.6135413413
 O          1.8331899120        1.6819415665        2.6431038146
 H         -0.1227164937       -0.1670877093        0.7668149935
 C         -0.6758654199        0.1888572037       -0.0942402250
 C         -0.3718912161        1.4383906708       -0.6215785240
 C         -1.1023022502        1.8902345161       -1.7123381690
 C         -2.0835029381        1.0935901061       -2.2783472148
 C         -2.3647257934       -0.1592959873       -1.7670233643
 C         -1.6548243668       -0.6118152705       -0.6613049334
 N         -1.9458298327       -1.8750222134       -0.1195466886
 S         -3.5541527641       -2.2976966694        0.0657063729
 O         -3.5757894378       -3.2287055667        1.1723007184
 O         -4.0716342197       -2.7966251991       -1.1840674340
 C         -4.3943366758       -0.7851021708        0.5023871897
 C         -3.9816163641       -0.1140169947        1.6364939705
 C         -4.6041767487        1.0763016008        1.9748161709
 C         -5.6248397793        1.5723534189        1.1779162978
 C         -6.0318783907        0.8837932811        0.0459912217
 C         -5.4105536544       -0.3059148673       -0.2988147175
 H         -5.6921878137       -0.8716319610       -1.1719471543
 H         -6.8271140311        1.2708580578       -0.5703434163
 H         -6.1049373407        2.5009791836        1.4431741336
 H         -4.2875467258        1.6126102199        2.8551051592
 H         -3.1877706900       -0.5265141481        2.2389768291
 H         -1.4055984022       -2.1069749920        0.7003822789
 H         -3.1109671953       -0.7989299192       -2.2096064219
 H         -2.6339941580        1.4523444640       -3.1343717757
 H         -0.8964969425        2.8624560340       -2.1282358158
 C          0.7143176534        2.2472944601        0.0462559582
 H          0.3496534594        2.5515339413        1.0384817636
 C          1.1103458335        3.4873003406       -0.7278005160
 C          0.3500634167        4.7657554887       -0.5474492737
 C          1.7329304495        4.6307918477        0.0135089300
 H          2.5388681183        5.1733211875       -0.4574569374
 H          1.8464646863        4.5244537735        1.0828871663
 H          0.2079520510        5.4068249136       -1.4043085518
 H         -0.4783380423        4.7619015589        0.1444993684
 H          1.5032573659        3.2555650603       -1.7109319268
 O          2.2052449426        0.8538036350       -1.9793903174
