  62
        -98.94420192
 C         -1.9813499843       -1.2723354116        0.0162112976
 C         -2.3367441502       -0.2939780866       -0.9435921837
 C         -3.7575945373        0.0856714391       -0.9744514710
 C         -4.6198377260       -0.5031217226       -0.1263609860
 C         -6.0799087851       -0.1738689938       -0.0187332121
 C         -6.3265621361        0.9217357350        1.0277809123
 C         -5.4162774286        2.1401304084        0.8726250545
 H         -5.7014928107        2.8595175691        1.6433432930
 H         -4.3844565653        1.8443358057        1.0768223413
 C         -5.4860095239        2.8132182499       -0.5052712682
 H         -5.5437535073        3.8945557005       -0.3638485803
 H         -6.3955890316        2.5055788627       -1.0225652125
 C         -4.2770391181        2.5461273661       -1.4039775062
 H         -3.3569925509        2.7650749275       -0.8555658295
 H         -4.3244828131        3.2363662027       -2.2506235468
 C         -4.1713931016        1.1267945625       -1.9761263473
 H         -5.1142210238        0.8511555993       -2.4529375530
 H         -3.3888492924        1.1352478326       -2.7405338933
 H         -7.3702255779        1.2343138910        0.9610138207
 H         -6.1620074589        0.4962551534        2.0204035472
 H         -6.4473244054        0.1485019448       -0.9909827909
 H         -6.6148086588       -1.0767354445        0.2807181693
 O         -4.2427977838       -1.4450360480        0.7751047374
 C         -2.9202909771       -1.8372430796        0.8829497603
 O         -2.7075906239       -2.6873890742        1.7701618886
 O         -1.5217956135        0.2367449987       -1.7432462368
 C         -0.5408794614       -1.7329195786        0.1760016549
 C          0.2711260693       -0.5836878764        0.7201140257
 C          0.2170736929       -0.2992838139        2.0817249529
 C          0.9285830811        0.7604215167        2.6130904336
 C          1.7042625247        1.5649153863        1.7956081607
 C          1.7549205843        1.2948276551        0.4355054939
 C          1.0522888202        0.2208988179       -0.0944615887
 H          1.0940502143        0.0309251455       -1.1551311037
 N          2.5535714789        2.1078412833       -0.4008043634
 S          4.2043915701        1.9816555637       -0.1422760019
 O          4.5228727223        2.5595401681        1.1382543551
 O          4.8333430491        2.5866529971       -1.2941340828
 C          4.5129612089        0.2251827249       -0.1163376984
 C          4.7659310366       -0.4209629773       -1.3098808782
 C          4.9258651491       -1.7970118245       -1.3064204411
 C          4.8164249078       -2.5011075099       -0.1170590411
 C          4.5579845988       -1.8375919789        1.0723498322
 C          4.4034110989       -0.4606169918        1.0766449955
 H          4.2064289916        0.0911129623        1.9810588143
 H          4.4725095482       -2.3872623865        1.9960044864
 H          4.9335455309       -3.5733861637       -0.1176103009
 H          5.1310880518       -2.3160767826       -2.2289886921
 H          4.8463990702        0.1646851780       -2.2117782556
 H          2.3549140185        1.9684773085       -1.3819340951
 H          2.2762875607        2.3889595833        2.1906519923
 H          0.8786828067        0.9644607678        3.6720623683
 H         -0.3983521355       -0.9205658870        2.7179911529
 H         -0.5631286120       -2.5213605798        0.9397733206
 C          0.0171999740       -2.3126223742       -1.1073155118
 C          1.3114253536       -3.0667923070       -1.0622539842
 C          0.0249018480       -3.7979210364       -1.2988140166
 H         -0.1731475544       -4.1898711545       -2.2851893435
 H         -0.3735265999       -4.4067750268       -0.5004695957
 H          2.0019775318       -2.9579638240       -1.8843108889
 H          1.7894016526       -3.1738582536       -0.1003967458
 H         -0.1864816754       -1.7031868002       -1.9788045729
