  62
        -98.93895901
 C         -1.2494243791        1.2580758397        0.1859605043
 C         -2.3605005423        1.1924867974       -0.6920111413
 C         -3.1851697312       -0.0194266274       -0.6077279154
 C         -2.8385858250       -0.9980638954        0.2473339904
 C         -3.5321245941       -2.3227193250        0.4295557534
 C         -4.9710642862       -2.2690997693        0.9785180399
 C         -6.0613804272       -2.2655246648       -0.1001375541
 H         -5.6601124831       -2.7166829175       -1.0084251245
 H         -6.8836137807       -2.9041184940        0.2292344275
 C         -6.6650606497       -0.8978456554       -0.4331202302
 H         -7.3733013219       -0.6197878359        0.3508653572
 H         -7.2289274303       -0.9984809124       -1.3631097265
 C         -5.6692064087        0.2529380987       -0.5797588307
 H         -6.1966494005        1.1073244853       -1.0087555525
 H         -5.3245844398        0.5685861160        0.4078834508
 C         -4.4328702360       -0.0721365522       -1.4404496533
 H         -4.5389837066       -1.0471467470       -1.9134572470
 H         -4.3173848989        0.6797098055       -2.2236640130
 H         -5.0793058724       -1.4042555586        1.6324738426
 H         -5.1071601236       -3.1588999792        1.5953149036
 H         -3.5304529247       -2.8550444106       -0.5243849870
 H         -2.9095155152       -2.8825622505        1.1301258963
 O         -1.7475237384       -0.9079631150        1.0533981109
 C         -0.9331275268        0.2133292742        1.0552938692
 O          0.0102283945        0.1464570748        1.8657034568
 H          1.9156641556        1.5751573441        1.3158083048
 C          1.9967322092        1.6103236514        0.2412866463
 C          0.9379639609        2.0890757842       -0.5156996852
 C          1.0605341173        2.0956290827       -1.9020590782
 C          2.2129105104        1.6358427387       -2.5126254189
 C          3.2593229185        1.1389753883       -1.7546041789
 C          3.1386968050        1.1157233626       -0.3719693905
 N          4.1762366230        0.5572898918        0.4080695228
 S          4.4851093896       -1.0656772357        0.1195172292
 O          5.2237867869       -1.5298457733        1.2721280195
 O          5.1536416307       -1.1906613670       -1.1518317967
 C          2.8871394643       -1.8544011280        0.0437324972
 C          2.3028031642       -2.2806617520        1.2188037271
 C          1.0446596666       -2.8569238566        1.1721090925
 C          0.3894867033       -2.9820110350       -0.0422967600
 C          0.9847221874       -2.5390209839       -1.2129076605
 C          2.2477645152       -1.9718324131       -1.1739494887
 H          2.7469259796       -1.6266144642       -2.0643528472
 H          0.4670105841       -2.6300392172       -2.1547031320
 H         -0.5943058510       -3.4232324234       -0.0761357027
 H          0.5730904253       -3.1903983366        2.0822726240
 H          2.8419719561       -2.1644575559        2.1452777979
 H          4.0226047474        0.6860712399        1.3990527084
 H          4.1549800914        0.7496993073       -2.2112771480
 H          2.2955752204        1.6553672422       -3.5887808707
 H          0.2316410502        2.4518061919       -2.4973027152
 C         -0.3675284759        2.4952692341        0.1196353912
 H         -0.8825030912        3.1830721804       -0.5638328015
 C         -0.2107112873        3.1728258096        1.4645054722
 C          0.3344401783        4.5677501279        1.5190092042
 C         -1.1123407485        4.3161599942        1.8171552170
 H         -1.4528996323        4.4073058654        2.8377834149
 H         -1.8456321125        4.6199006282        1.0845193024
 H          0.5843428399        5.0409262001        0.5814456440
 H          0.9892016797        4.8353155853        2.3341935452
 H          0.0558002710        2.4936086612        2.2644754524
 O         -2.6480379764        2.1050586610       -1.5114138718
