  62
        -98.94941264
 C         -1.3737498352       -1.5852479126        0.2755746731
 C         -1.6231217837       -0.5923916724        1.2531406208
 C         -2.7809582405        0.2765893852        1.0142632610
 C         -3.5269556485        0.0864370845       -0.0888761251
 C         -4.7219840239        0.9106143482       -0.4694814513
 C         -4.3346680931        2.0779467381       -1.3867347649
 C         -3.1588683275        2.9114071099       -0.8758114156
 H         -2.2414317812        2.3182678076       -0.9112937339
 H         -3.0206292363        3.7397315861       -1.5749962321
 C         -3.3386947494        3.4693695560        0.5427561987
 H         -3.0059057841        4.5094977626        0.5493695166
 H         -4.3949955444        3.4626773963        0.8164347862
 C         -2.5255108811        2.7375804002        1.6124199775
 H         -2.5041046692        3.3602984190        2.5112268422
 H         -1.4953880262        2.6289870567        1.2609673037
 C         -3.0551738122        1.3564543084        2.0218397378
 H         -2.5338585995        1.0555648042        2.9354553084
 H         -4.1230821144        1.4217959636        2.2416073245
 H         -5.2085317362        2.7208909490       -1.5109114565
 H         -4.0663510396        1.6757264801       -2.3664780047
 H         -5.1973199271        1.2878541735        0.4339927128
 H         -5.4267665643        0.2661011817       -0.9982369763
 O         -3.2553882113       -0.8729252503       -1.0099730030
 C         -2.1495968828       -1.7015370697       -0.8772135661
 O         -1.9811670258       -2.4857480570       -1.8305977838
 O         -0.9047057629       -0.4397136219        2.2789686151
 C         -0.1485057448       -2.4667303019        0.4316457191
 C          0.8935624778       -2.0941824022       -0.5968411331
 C          1.7260650285       -3.0151605234       -1.2204222746
 C          2.6772477178       -2.5893508449       -2.1323234637
 C          2.8365133098       -1.2468086835       -2.4257892346
 C          2.0104740966       -0.3173010024       -1.8037002921
 C          1.0514831279       -0.7502679039       -0.9038160120
 H          0.3995910645       -0.0218182958       -0.4495402902
 N          2.1199438178        1.0553500866       -2.0675223883
 S          1.8259341355        2.1681215624       -0.8532613597
 O          0.4175724199        2.2389403083       -0.5594234559
 O          2.4287622014        3.3891734419       -1.3449439455
 C          2.7564710011        1.5679050650        0.5451702495
 C          2.1330009235        0.9821397317        1.6271872855
 C          2.9154430072        0.4871568814        2.6599577143
 C          4.2958652200        0.5849918354        2.5959323828
 C          4.9073913153        1.1843211568        1.5045803176
 C          4.1326045546        1.6776046263        0.4689010809
 H          4.5674031461        2.1620474660       -0.3903876404
 H          5.9813889576        1.2652499666        1.4581788096
 H          4.8970264509        0.1946771636        3.4019256147
 H          2.4302207928        0.0239123551        3.5043610958
 H          1.0571533646        0.9072838621        1.6639391343
 H          2.9007665218        1.3231183616       -2.6475354496
 H          3.5815437521       -0.9201996750       -3.1347931039
 H          3.3111982814       -3.3155262354       -2.6179842467
 H          1.6247259113       -4.0650781388       -0.9995078894
 H          0.2638842182       -2.2139184234        1.4211740455
 C         -0.5142044375       -3.9354181294        0.4200842616
 C          0.2855365154       -4.9194155686        1.2194356595
 C         -1.0964988818       -4.5443667763        1.6595842666
 H         -1.8900564067       -5.2686480324        1.5538818345
 H         -1.2035892646       -3.9042875529        2.5233177262
 H          0.4407548901       -5.9075827649        0.8133198961
 H          1.1178890093       -4.5404223620        1.7929456679
 H         -0.9207564521       -4.2561205252       -0.5319372723
