  62
        -98.93353695
 C         -2.2520883122       -0.7344077032       -0.0790984122
 C         -3.5073438440       -1.1789873912        0.3987314111
 C         -4.6869134310       -0.4781850431       -0.1294377157
 C         -4.5127092785        0.5120600443       -1.0238638893
 C         -5.6052391805        1.3737650070       -1.5907937124
 C         -6.0324041873        2.4324920514       -0.5538401702
 C         -7.4665534017        2.2768116505       -0.0474174353
 H         -7.5798436967        2.9318536299        0.8190068671
 H         -8.1550869044        2.6284325214       -0.8185810704
 C         -7.8861475763        0.8563841519        0.3430378522
 H         -8.8087741722        0.9449619950        0.9205108962
 H         -8.1341980651        0.2871021737       -0.5539312865
 C         -6.8663440160        0.0572642725        1.1645147881
 H         -7.4114091705       -0.5182952153        1.9153845584
 H         -6.1961277074        0.7273251832        1.7033352659
 C         -6.0331563881       -0.9487067006        0.3483155210
 H         -5.8167189329       -1.8157533226        0.9793615769
 H         -6.6195194587       -1.3015603196       -0.5044617846
 H         -5.9289955083        3.4283557613       -0.9873183252
 H         -5.3396000051        2.3843238671        0.2889272642
 H         -6.4519593834        0.7532795475       -1.8758113465
 H         -5.2078147688        1.8552964104       -2.4843855772
 O         -3.2888277842        0.9040907670       -1.4669006503
 C         -2.1286497314        0.2960557966       -1.0098433655
 O         -1.0793444678        0.7568440377       -1.4991711476
 O         -3.6341672733       -2.1160723239        1.2326480923
 C         -0.9932670970       -1.4169038490        0.4215717446
 C         -0.0400344761       -0.4109626454        1.0175805419
 C         -0.5282383019        0.5417182332        1.9084272188
 C          0.3140569696        1.4827568345        2.4669028905
 C          1.6617620552        1.4922633384        2.1534531739
 C          2.1646691117        0.5324163863        1.2833694643
 C          1.3151830111       -0.4141796684        0.7268432838
 H          1.7286848767       -1.1418546514        0.0499842747
 N          3.5416788115        0.4890782141        1.0031364439
 S          4.1040373760       -0.0292660123       -0.5002842933
 O          3.5269361836        0.7622590151       -1.5638699250
 O          3.9372608081       -1.4571364722       -0.5981528154
 C          5.8361621222        0.3550643326       -0.3141962902
 C          6.3499041623        1.4991364464       -0.8943724012
 C          7.6923151988        1.7963185766       -0.7171788005
 C          8.4928172714        0.9508302257        0.0359647933
 C          7.9631481900       -0.1948663092        0.6113251454
 C          6.6226289466       -0.4987278430        0.4362894803
 H          6.1693823453       -1.3816176039        0.8556175303
 H          8.5894152470       -0.8511446151        1.1938036476
 H          9.5367658059        1.1847256797        0.1728668177
 H          8.1074333067        2.6840072547       -1.1666437491
 H          5.6911499120        2.1225335960       -1.4776831004
 H          4.0175514117        1.3360716787        1.2839185417
 H          2.3185614910        2.2339812680        2.5820089037
 H         -0.0821332453        2.2217625439        3.1472844706
 H         -1.5833068495        0.5402170599        2.1474263254
 H         -1.3255615599       -2.0938429050        1.2235666410
 C         -0.3744116578       -2.2461494022       -0.6844102065
 C          0.4010501344       -3.4861627461       -0.3578284102
 C         -0.9499547843       -3.5937291884       -0.9967446937
 H         -1.0120883959       -3.9004011731       -2.0301188530
 H         -1.7778539158       -3.9292656871       -0.3893193424
 H          1.2762771248       -3.7138253010       -0.9480826413
 H          0.4916759297       -3.7567132116        0.6833887193
 H         -0.0375904001       -1.6398621207       -1.5196404136
