  62
        -98.94667033
 C          1.1551337961        1.3535669868        0.2921399340
 C          1.3648187025        0.3389469927       -0.6732045231
 C          2.3472852558       -0.6916759250       -0.3128363715
 C          2.9253162720       -0.6797099482        0.9008627958
 C          3.9348373815       -1.6699768396        1.4146363522
 C          5.3780064978       -1.3552920103        0.9966508947
 C          5.6997725766       -1.6219715615       -0.4745339618
 H          6.7854339406       -1.5707570119       -0.5785877270
 H          5.3966344259       -2.6367694007       -0.7340054673
 C          5.0638762173       -0.6259465736       -1.4545579598
 H          4.7472079691        0.2677302484       -0.9118777844
 H          5.8111811819       -0.3071694921       -2.1848434079
 C          3.8725080201       -1.1777269873       -2.2381242088
 H          3.4813431318       -0.3781471719       -2.8723357496
 H          4.2066615186       -1.9891545873       -2.8885135894
 C          2.7240159674       -1.6942850582       -1.3611132013
 H          3.0022309497       -2.6414601021       -0.9008505359
 H          1.8503598410       -1.8543700827       -1.9970984786
 H          5.5915973316       -0.3103315391        1.2330021367
 H          6.0377654132       -1.9749979833        1.6083797637
 H          3.6751946881       -2.6746222321        1.0797360631
 H          3.8779386670       -1.6372847633        2.5048039624
 O          2.6291657191        0.2594388693        1.8367377958
 C          1.7765728083        1.3083623293        1.5453692938
 O          1.6462179981        2.1302994074        2.4743077459
 O          0.7840931678        0.2741981854       -1.7898373759
 C          0.2605036760        2.5630402890        0.0589042250
 C         -1.1933628057        2.2086590701        0.2512874572
 C         -1.9342163084        2.7586728850        1.2905781006
 C         -3.2596175707        2.4044326690        1.4789869682
 C         -3.8700289743        1.4874443092        0.6412455048
 C         -3.1325600591        0.9267181985       -0.3927524474
 C         -1.8111728004        1.2951019751       -0.5910642753
 H         -1.2409453248        0.8431425933       -1.3892184456
 N         -3.7281378356       -0.0609255259       -1.2151732246
 S         -3.9378985627       -1.5368952932       -0.4509866790
 O         -4.3355850054       -2.4676447834       -1.4819904649
 O         -4.8620599656       -1.3583993857        0.6396558572
 C         -2.3304748917       -1.9821231313        0.1857451747
 C         -1.5523325309       -2.8743675665       -0.5233942667
 C         -0.2969283460       -3.2022142803       -0.0390836707
 C          0.1645347919       -2.6187849395        1.1302349810
 C         -0.6201913183       -1.7085599873        1.8203998650
 C         -1.8830740559       -1.3885979786        1.3496054919
 H         -2.5238466759       -0.6978314931        1.8733003857
 H         -0.2499131958       -1.2419226469        2.7202456102
 H          1.1407274126       -2.8730001958        1.5109217843
 H          0.3187650236       -3.9067499659       -0.5744370964
 H         -1.9495915584       -3.3045428850       -1.4288576778
 H         -3.2055652824       -0.2153599795       -2.0675900797
 H         -4.8912429966        1.1765247558        0.7896764789
 H         -3.8219018352        2.8425604406        2.2896609329
 H         -1.4588169698        3.4563584691        1.9647521374
 H          0.5338518367        3.2866020030        0.8382800064
 C          0.4921327692        3.2078447678       -1.2944340148
 C          0.0999874164        4.6395064984       -1.4937768647
 C          1.5487935165        4.2601245875       -1.4329151094
 H          2.1308454117        4.2898551157       -2.3418309360
 H          2.1090563949        4.5263367427       -0.5481013013
 H         -0.3159461048        4.9320534400       -2.4456429471
 H         -0.3212602033        5.1653039568       -0.6502699346
 H          0.3580808952        2.5284268035       -2.1255730471
