  62
        -98.93475215
 C         -2.3100500590       -0.2305086129        0.2049558768
 C         -3.4795806318       -0.5762313491        0.9191221409
 C         -4.7163169308        0.1311508698        0.5440578901
 C         -4.6772836305        1.0506849992       -0.4386239697
 C         -5.7561820074        1.9511440884       -1.0039235149
 C         -7.2292939825        1.6950975082       -0.6964284546
 C         -7.7975376457        0.4151437497       -1.3086131907
 H         -8.8173291997        0.2837219603       -0.9404321324
 H         -7.8490228779        0.5421480696       -2.3929035685
 C         -7.0016491753       -0.8580735812       -1.0327289954
 H         -7.5118016066       -1.6860927992       -1.5324570233
 H         -6.0093738419       -0.7754562485       -1.4810461888
 C         -6.8503952243       -1.2285868512        0.4412317960
 H         -6.4041130547       -2.2257671716        0.4854239387
 H         -7.8347294794       -1.2819467653        0.9103820487
 C         -5.9612353439       -0.2875659532        1.2722501955
 H         -5.6272424666       -0.8348044839        2.1586390947
 H         -6.5170781829        0.5816087827        1.6154293863
 H         -7.7850982232        2.5366630228       -1.1187717952
 H         -7.3989297540        1.7131306502        0.3760418647
 H         -5.5029497141        2.9626048990       -0.6674884076
 H         -5.6103663081        1.9434015384       -2.0887325694
 O         -3.5180757924        1.3576682749       -1.0933663776
 C         -2.3170100327        0.7333900024       -0.8008688002
 O         -1.3562174308        1.1193062892       -1.4931878933
 O         -3.4908044761       -1.4328885924        1.8442689513
 C         -1.0071887611       -0.9315844300        0.5393741545
 C          0.0440360017        0.0719988874        0.9437238056
 C         -0.2671035819        1.0156133526        1.9204180721
 C          0.6683755058        1.9459699305        2.3277443908
 C          1.9406180865        1.9470677707        1.7826044237
 C          2.2618411365        1.0103320559        0.8083710720
 C          1.3161669320        0.0808773744        0.3957984255
 H          1.5952526327       -0.6326591681       -0.3609643434
 N          3.5355151718        1.0010444848        0.2178965473
 S          4.2104233957       -0.4789266016       -0.2312401578
 O          3.7104897560       -0.8520275541       -1.5304313797
 O          4.0294665210       -1.4479592195        0.8261582368
 C          5.9293659369       -0.0201697698       -0.3603177681
 C          6.7898913736       -0.3042775700        0.6832701329
 C          8.1178994446        0.0795250361        0.5806224491
 C          8.5595330845        0.7400910900       -0.5558836702
 C          7.6839428316        1.0183783074       -1.5952691275
 C          6.3553584904        0.6362279630       -1.4998622598
 H          5.6410387294        0.8224981475       -2.2850317731
 H          8.0315349957        1.5298620508       -2.4783313819
 H          9.5934020764        1.0372179058       -0.6339393765
 H          8.8017210356       -0.1382726718        1.3851469494
 H          6.4032849554       -0.8268317864        1.5434104798
 H          4.2010746052        1.5849206784        0.7054594792
 H          2.6736443711        2.6721368865        2.1021928885
 H          0.4092839850        2.6727359373        3.0831321570
 H         -1.2585461385        1.0092152861        2.3532173315
 H         -1.2288111573       -1.5618432618        1.4143279458
 C         -0.5799294402       -1.8263427564       -0.6046963984
 C          0.2787527568       -3.0262077137       -0.3426731269
 C         -1.1617854959       -3.2023689803       -0.7158592139
 H         -1.3980301951       -3.5846118039       -1.6975703924
 H         -1.8550427850       -3.5104232098        0.0531910343
 H          1.0397981157       -3.2811553080       -1.0655040853
 H          0.5701606088       -3.2176439183        0.6793760588
 H         -0.4164479035       -1.2760450756       -1.5255376605
