  62
        -98.94008482
 C         -1.7881248795       -0.4173446884        1.1227133062
 C         -2.0393646793        0.5915403389        0.1599960238
 C         -3.4566920892        0.8268947515       -0.1570189545
 C         -4.4170283294        0.1552882568        0.5016523705
 C         -5.9004780193        0.2916086486        0.2912822715
 C         -6.4419130195       -0.5532194326       -0.8702751149
 C         -6.0834986493       -0.0455377221       -2.2676938811
 H         -6.3532568791        1.0077395585       -2.3510188232
 H         -6.7029104194       -0.5975115067       -2.9773975652
 C         -4.6090668294       -0.2323271895       -2.6526141124
 H         -4.5449061094       -0.6399835419       -3.6640068155
 H         -4.1467301395       -0.9627500146       -1.9845286079
 C         -3.7803901691        1.0523636502       -2.6296271528
 H         -4.1527320690        1.7429297759       -3.3897255576
 H         -2.7471167292        0.8005927019       -2.8842578146
 C         -3.7719496390        1.7736543600       -1.2753389274
 H         -4.7305544989        2.2627938789       -1.1034493737
 H         -2.9877886789        2.5348363500       -1.2968274216
 H         -7.5305502495       -0.5691099230       -0.7817070151
 H         -6.0841727097       -1.5787402335       -0.7527597626
 H         -6.3779048994       -0.0448958282        1.2140547989
 H         -6.1543611891        1.3396431999        0.1304597993
 O         -4.1353975196       -0.7425739907        1.4830757237
 C         -2.8252781296       -1.0613919533        1.8032374314
 O         -2.7150336398       -1.9110960001        2.7092235650
 H          1.8675049006       -0.0654553212        0.0798668290
 C          1.6233007307        0.6131858128        0.8787505141
 C          0.5020489506        0.3919440871        1.6628917424
 C          0.1841076208        1.3185897997        2.6525309393
 C          0.9588243810        2.4467422682        2.8365894978
 C          2.0766481810        2.6654266139        2.0510269995
 C          2.4095996309        1.7417029312        1.0670266126
 N          3.5737613110        1.9132783967        0.3107872739
 S          3.8545067309        1.1794367877       -1.1572765216
 O          5.0836834010        1.7937375609       -1.6162409270
 O          2.7347629209        1.2740676247       -2.0630735409
 C          4.1736883605       -0.5244511755       -0.7470825344
 C          4.8929807904       -0.8234708142        0.3929258434
 C          5.1491345502       -2.1520891765        0.6924005534
 C          4.6900961900       -3.1536474700       -0.1495513441
 C          3.9765159301       -2.8368830313       -1.2950188118
 C          3.7163479904       -1.5099691790       -1.5992341918
 H          3.1567326705       -1.2164128523       -2.4737445996
 H          3.6202996700       -3.6163904863       -1.9497983876
 H          4.8882276498       -4.1870321119        0.0876035781
 H          5.7036265101       -2.4028805432        1.5823314915
 H          5.2317071706       -0.0218912690        1.0275930294
 H          4.0359083711        2.8047261159        0.4018352806
 H          2.6837108612        3.5463136127        2.1937178761
 H          0.6924160211        3.1640719525        3.5984344832
 H         -0.6912253593        1.1480721053        3.2651057280
 C         -0.3756974196       -0.8246360615        1.5050340232
 H         -0.4739316897       -1.2961888090        2.4970822497
 C          0.2260861402       -1.8751690847        0.5822537553
 C         -0.6383999699       -2.8955483695       -0.0940741023
 C          0.0379404003       -1.8320131535       -0.9030561643
 H          0.8684298603       -2.1146802189       -1.5328437764
 H         -0.5577080495       -1.0291002804       -1.3089000283
 H         -1.7061379899       -2.8270418904        0.0557282581
 H         -0.2727920801       -3.9085178590       -0.1664746599
 H          1.1897464702       -2.2257272176        0.9401519827
 O         -1.1459765091        1.2679589030       -0.4112326711
