  62
        -98.93771485
 C         -2.4306609692       -1.3464863099        0.3731112293
 C         -2.6363035494       -0.5789705696       -0.7984096905
 C         -3.4588457596        0.6321335202       -0.6405098301
 C         -3.9322080796        0.9518555998        0.5773957300
 C         -4.7069815898        2.1940059095        0.9147321904
 C         -3.7508085400        3.4002737697        1.0107466807
 C         -3.9756661602        4.4694928200       -0.0585912689
 H         -4.8663051103        5.0466642897        0.1985404813
 H         -3.1208287803        5.1485264001       -0.0253786387
 C         -4.1478877601        3.9547197204       -1.4907858691
 H         -4.0319199303        4.8151044406       -2.1531576788
 H         -5.1665726701        3.5896408402       -1.6297083692
 C         -3.1699032099        2.8585764607       -1.9339394494
 H         -2.8920762400        3.0514048310       -2.9722832494
 H         -2.2489887299        2.9004108706       -1.3504633094
 C         -3.7427095297        1.4296865306       -1.8831279099
 H         -4.8218816997        1.4633340904       -2.0567469699
 H         -3.2951532896        0.8481992309       -2.6946337801
 H         -2.7241156499        3.0317848998        0.9460203006
 H         -3.8531631401        3.8697256493        1.9904338809
 H         -5.4687993298        2.3688309796        0.1584448704
 H         -5.1974627398        2.0212727692        1.8728748303
 O         -3.6835062495        0.2058658095        1.6859246397
 C         -2.9266324593       -0.9521994804        1.6147117694
 O         -2.7628420592       -1.5277534107        2.7105419892
 H         -0.0465224993       -0.8744693699        1.5657635194
 C          0.4740002508       -1.3006115296        0.7157095792
 C         -0.1777973191       -2.2494996394       -0.0635277310
 C          0.4953137010       -2.7889950490       -1.1504022312
 C          1.7819110309       -2.3740753187       -1.4508836211
 C          2.4251193208       -1.4279577888       -0.6747122808
 C          1.7622488707       -0.8857913693        0.4192990394
 N          2.4126577605        0.0649495506        1.2279768296
 S          3.0790480203        1.4105206209        0.4730731401
 O          3.1117817802        2.4366536006        1.4930972304
 O          2.3766257803        1.7388665712       -0.7460124898
 C          4.7452280704        0.9005873413        0.1081047899
 C          5.5387252605        0.4790319511        1.1571113597
 C          6.8371978505        0.0740106714        0.8927221096
 C          7.3180990505        0.0998267119       -0.4080725004
 C          6.5102270804        0.5300663421       -1.4494975703
 C          5.2097659004        0.9358053318       -1.1919846901
 H          4.5427086103        1.2720702919       -1.9698831500
 H          6.8858401804        0.5497524025       -2.4599225103
 H          8.3286844806       -0.2173717979       -0.6114428905
 H          7.4684938006       -0.2607255187        1.6999829295
 H          5.1268596605        0.4780194607        2.1524930497
 H          1.8663865905        0.3491626603        2.0286892597
 H          3.4251597107       -1.1017343586       -0.9088244507
 H          2.2912298710       -2.7947538383       -2.3043726612
 H          0.0091859211       -3.5234187989       -1.7706606014
 C         -1.5921931090       -2.6129656898        0.3203758589
 H         -1.5723644990       -3.0037205301        1.3481204287
 C         -2.2299287889       -3.6468275996       -0.5818936015
 C         -1.9293527486       -5.1006018696       -0.3789076119
 C         -3.2765806787       -4.5557095199       -0.0138410617
 H         -4.1241405687       -4.8140639699       -0.6306537618
 H         -3.5184539487       -4.4417397403        1.0330945983
 H         -1.2555268386       -5.3634553498        0.4224066580
 H         -1.8537857385       -5.7380611393       -1.2466203021
 H         -2.3762300889       -3.2876469993       -1.5935019813
 O         -2.1637951993       -0.8881114192       -1.9228761406
