  62
        -98.94506248
 C         -0.7264147658       -1.6122928051       -1.1124444101
 C         -2.0141241219       -1.8368961921       -0.5632197471
 C         -2.9938851579       -0.7599663605       -0.7311468579
 C         -2.6364702702        0.3680472651       -1.3697246656
 C         -3.5053672836        1.5760494246       -1.5917461380
 C         -3.5454040421        2.5264088604       -0.3868575732
 C         -4.3870215557        2.0404794965        0.7939026209
 H         -4.5363875115        2.8975992442        1.4538658150
 H         -5.3693259190        1.7260349386        0.4384050671
 C         -3.7392747781        0.9083397466        1.6036553138
 H         -2.6668899000        0.8761561057        1.3937674046
 H         -3.8411849870        1.1232240772        2.6706137737
 C         -4.3450438683       -0.4752060790        1.3644210134
 H         -5.3748622571       -0.4912051775        1.7302667388
 H         -3.7693043296       -1.2021107675        1.9433284268
 C         -4.3428549254       -0.9293150763       -0.1003969101
 H         -4.5895479535       -1.9939692119       -0.1266376249
 H         -5.0971424975       -0.3810958577       -0.6649609813
 H         -3.9537643641        3.4794661188       -0.7322206988
 H         -2.5228857517        2.7028175026       -0.0419051382
 H         -4.5189736284        1.2631876134       -1.8446641711
 H         -3.0837758717        2.1130047710       -2.4443616283
 O         -1.4069195145        0.5345245489       -1.9170627238
 C         -0.4101902771       -0.4271956670       -1.7784057562
 O          0.6682959012       -0.0983874596       -2.3041043972
 O         -2.3298063545       -2.8987408498        0.0406356330
 C          0.3258366650       -2.6685713773       -0.8185030545
 C          0.9370644604       -2.3620320122        0.5265892686
 C          1.0839696932       -3.3342045036        1.5080937448
 C          1.5786601105       -2.9987663029        2.7571280650
 C          1.9034370051       -1.6885484909        3.0607152324
 C          1.7608768275       -0.7099325196        2.0831536876
 C          1.3154912494       -1.0595820623        0.8192043694
 H          1.2218728218       -0.2957220448        0.0645860140
 N          2.0588539974        0.6363611884        2.3356521405
 S          1.1463639250        1.8272229849        1.5844519302
 O          1.3218907539        2.9920580874        2.4303618907
 O         -0.2215682807        1.4105046847        1.3797065641
 C          1.9645174588        2.1343263971        0.0357663977
 C          3.3247484108        1.9243517048       -0.0692057677
 C          3.9538622003        2.2157868712       -1.2681897508
 C          3.2191621576        2.7162730979       -2.3318794142
 C          1.8559808715        2.9274173563       -2.2075954700
 C          1.2202931800        2.6343498015       -1.0124886960
 H          0.1566749430        2.7634810170       -0.8848767449
 H          1.2806964384        3.3050852652       -3.0375064849
 H          3.7100162488        2.9373197591       -3.2666495199
 H          5.0137586477        2.0464860967       -1.3713575514
 H          3.8639261826        1.5270993755        0.7749742374
 H          2.2669772506        0.8650984018        3.2965427268
 H          2.2539591071       -1.4217131534        4.0459919908
 H          1.6883793028       -3.7619844401        3.5125763708
 H          0.7850161995       -4.3504583425        1.2973813842
 H         -0.2308946983       -3.6144185681       -0.7207887322
 C          1.3565835334       -2.8530909154       -1.9201426188
 C          2.7651767847       -2.3590102313       -1.8160824876
 C          2.4825378282       -3.8274081369       -1.7345609242
 H          2.7625643190       -4.4572016374       -2.5651942293
 H          2.5760905754       -4.3001712473       -0.7685478691
 H          3.2202675655       -1.9611346481       -2.7096066166
 H          3.0569645209       -1.8420959180       -0.9154161986
 H          0.9048090085       -2.8098214013       -2.9055555159
