  62
        -98.94386678
 C          1.8559796338        1.1441657866       -0.4616968915
 C          1.9055455382       -0.0238767901        0.3376315157
 C          3.2133447318       -0.3310341967        0.9312652733
 C          4.2560947450        0.4926345954        0.7212933274
 C          5.6427146373        0.3261790731        1.2814269172
 C          6.5379258284       -0.6156446616        0.4644862549
 C          6.1926753375       -2.1012725220        0.5760013199
 H          7.0236094090       -2.6564577718        0.1361049332
 H          6.1358055648       -2.3817278039        1.6283303394
 C          4.8956104330       -2.5053135831       -0.1386309604
 H          5.0685056506       -3.4140825258       -0.7195352369
 H          4.6112543790       -1.7226910141       -0.8457282739
 C          3.7167072439       -2.7808968685        0.7947831798
 H          3.9381074276       -3.6500239491        1.4182201747
 H          2.8443662694       -3.0193094875        0.1814401173
 C          3.3476972170       -1.6053258676        1.7091003994
 H          2.3794020390       -1.8170167852        2.1695850740
 H          4.0915426758       -1.4945252993        2.4978713463
 H          7.5631447496       -0.4753320633        0.8149381050
 H          6.5011603676       -0.3103811234       -0.5838679846
 H          5.5824107626       -0.0287486213        2.3107833588
 H          6.0985900187        1.3187590144        1.2826810036
 O          4.1592170892        1.6204842492       -0.0328478221
 C          2.9688960571        1.9616683131       -0.6558319445
 O          3.0256135043        3.0058242354       -1.3378824782
 O          0.9159245579       -0.7684635508        0.5501749242
 C          0.5652283850        1.5363848736       -1.1539059000
 C         -0.5580019380        1.7388266562       -0.1649366622
 C         -0.2950813605        2.2409197355        1.1057249399
 C         -1.3121132819        2.4179314749        2.0253263196
 C         -2.6210879580        2.1141704725        1.6943945167
 C         -2.8991712334        1.6384393506        0.4215853191
 C         -1.8748305348        1.4535798907       -0.4986240069
 H         -2.1111386301        1.0765110684       -1.4820572529
 N         -4.2379723684        1.3265937491        0.0876434048
 S         -4.8383906563       -0.0857788868        0.7653083425
 O         -6.2001283122       -0.2025637562        0.2952560514
 O         -4.6521005491       -0.0289027206        2.1916554869
 C         -3.8373824202       -1.3722929301        0.0424135401
 C         -4.3398760131       -2.0969975825       -1.0211438417
 C         -3.5227820270       -3.0262902428       -1.6436812454
 C         -2.2165823306       -3.1981759366       -1.2088434550
 C         -1.7254115604       -2.4598582002       -0.1432711221
 C         -2.5432665739       -1.5392843440        0.4929021988
 H         -2.1799369125       -0.9540191730        1.3219097961
 H         -0.7036977860       -2.5603343826        0.1864720165
 H         -1.5751901357       -3.9107201081       -1.7039669936
 H         -3.9012229383       -3.6060579087       -2.4703750965
 H         -5.3575253180       -1.9225840261       -1.3318946296
 H         -4.4019897641        1.2997571174       -0.9099981557
 H         -3.4238812989        2.2240716769        2.4047660329
 H         -1.0833160238        2.7959933509        3.0105058093
 H          0.7249292845        2.4818431049        1.3728584047
 H          0.7646317766        2.5015256885       -1.6434893402
 C          0.2242699162        0.5086411449       -2.2171496431
 C         -0.4164181999        0.9225646488       -3.5071920050
 C          1.0189353835        0.4926775104       -3.4869050682
 H          1.2814222551       -0.4600272817       -3.9213951082
 H          1.7816536718        1.2497344543       -3.6013846236
 H         -1.1399202434        0.2604859291       -3.9594271992
 H         -0.6242983693        1.9722855534       -3.6521707074
 H         -0.0577523431       -0.4473933207       -1.7905371341
