  62
        -98.93742530
 C         -1.4255267603       -1.4448481161       -0.3678060244
 C         -1.5223671012       -0.0856306221       -0.7497821440
 C         -2.6122200694        0.6957559259       -0.1286047026
 C         -3.4217780514        0.1057866932        0.7656772106
 C         -4.5928475840        0.7049512506        1.4958181768
 C         -5.9037177748        0.4744713328        0.7247497719
 C         -6.2398477674        1.5465054833       -0.3108114344
 H         -6.5154488810        2.4689765659        0.2044208493
 H         -7.1184042061        1.2027118245       -0.8615407074
 C         -5.1232261359        1.8580483685       -1.3097283789
 H         -5.5759766499        2.3320625876       -2.1826507543
 H         -4.6640339293        0.9271602107       -1.6471786243
 C         -4.0447962583        2.7914623540       -0.7389816430
 H         -4.3934862428        3.2130383744        0.2033133051
 H         -3.8971403271        3.6342023053       -1.4179149115
 C         -2.6700635872        2.1420532058       -0.5397693912
 H         -2.0918324281        2.7240377811        0.1877482794
 H         -2.1108607449        2.1865140133       -1.4802796372
 H         -6.7262534411        0.4268812634        1.4412827568
 H         -5.8377337793       -0.5016561753        0.2374422420
 H         -4.6556839598        0.1822801505        2.4528789396
 H         -4.4270668145        1.7607939863        1.6886795539
 O         -3.2964120306       -1.2086169568        1.1049006786
 C         -2.3026692545       -2.0010079659        0.5659210629
 O         -2.3038007311       -3.1783726179        0.9815972195
 H          0.7244739693       -0.2514812445        0.4349381979
 C          1.2628471410       -1.1597812650        0.6458578183
 C          0.8494854161       -2.3544740771        0.0747725884
 C          1.5402580556       -3.5192452392        0.3896433454
 C          2.6238209638       -3.4807812635        1.2493148006
 C          3.0320843907       -2.2877275170        1.8169209485
 C          2.3361185358       -1.1184890606        1.5238754255
 N          2.6929293704        0.0851591028        2.1348907002
 S          2.2906816483        1.6046424111        1.5810106416
 O          3.0025180244        2.4859765038        2.4834449770
 O          0.8599751325        1.7688207234        1.5362782834
 C          3.0273869010        1.7316243967       -0.0378699911
 C          2.2639704470        1.6618676284       -1.1842303674
 C          2.9014976000        1.7619754124       -2.4128053603
 C          4.2759962767        1.9208440504       -2.4757755672
 C          5.0288318184        1.9870865854       -1.3123153696
 C          4.4002583812        1.8938918493       -0.0827276916
 H          4.9443140663        1.9635137734        0.8451174294
 H          6.0984043427        2.1132143117       -1.3612781113
 H          4.7624722557        1.9952890364       -3.4355762563
 H          2.3097906454        1.7107886744       -3.3125856270
 H          1.1956487560        1.5223562190       -1.1226516888
 H          3.5390452002        0.0742493840        2.6820459498
 H          3.8683451162       -2.2602458710        2.4982913144
 H          3.1526802000       -4.3912570144        1.4867930973
 H          1.2094751308       -4.4605443548       -0.0238961304
 C         -0.3358103690       -2.3829168511       -0.8599708218
 H         -0.7720152164       -3.3934994239       -0.8001721171
 C          0.0587363579       -2.1433675607       -2.3109842296
 C          1.3555051043       -1.5151232570       -2.7131694382
 C          1.1284801873       -2.9751206119       -2.9550022506
 H          0.9735237398       -3.3144966881       -3.9679597834
 H          1.6648758292       -3.6734969139       -2.3316714771
 H          2.0413607760       -1.2234518737       -1.9326032471
 H          1.3426859420       -0.8388279350       -3.5532348936
 H         -0.8025156840       -1.9023952933       -2.9251634937
 O         -0.7539184093        0.4738075376       -1.5733887890
