  62
        -98.94406419
 C         -1.2497157505       -1.2622599004        0.1431060801
 C         -1.4136652107        0.0890451295        0.5469093303
 C         -2.5338279509        0.8194449094       -0.0597199193
 C         -3.2962806210        0.2023157494       -0.9802190593
 C         -4.4949982012        0.8079173093       -1.6501559289
 C         -5.7820870610        0.4950493390       -0.8743965887
 C         -5.6854203208        0.7863502688        0.6231455413
 H         -6.6593947506        0.5598867086        1.0625132915
 H         -4.9634098406        0.1013357388        1.0736005210
 C         -5.2935780509        2.2307613488        0.9644432514
 H         -5.9439034808        2.5897009486        1.7650221416
 H         -5.4602473212        2.8739801289        0.0997271616
 C         -3.8529750209        2.3984719290        1.4515404912
 H         -3.6545193306        1.6876525189        2.2577354010
 H         -3.7519453809        3.4033423889        1.8702860513
 C         -2.7620925111        2.2361794193        0.3851641109
 H         -2.9880548513        2.8762814294       -0.4696804489
 H         -1.8161514110        2.5623451494        0.8249045208
 H         -6.5974714612        1.0767450789       -1.3083086385
 H         -6.0153065809       -0.5645230110       -1.0023900888
 H         -4.3574091214        1.8845842394       -1.7262443588
 H         -4.5762674114        0.3881374195       -2.6541199290
 O         -3.0824941409       -1.0762674705       -1.3757165195
 C         -2.0683865706       -1.8471302604       -0.8238597398
 O         -2.0217371005       -3.0041258703       -1.2834087900
 O         -0.6615943006        0.6540242395        1.3852101602
 C         -0.1071218302       -2.0333897803        0.7845650497
 C          1.0815756796       -2.0336701299       -0.1453671905
 C          1.1344323595       -2.8460776698       -1.2735539806
 C          2.2261844293       -2.7922191995       -2.1203073409
 C          3.2771192792       -1.9280654293       -1.8673991910
 C          3.2315579693       -1.1100783095       -0.7439517508
 C          2.1390475895       -1.1716027698        0.1100176294
 H          2.1134842495       -0.5350169599        0.9818694695
 N          4.2846411892       -0.2325503394       -0.4632128609
 S          4.0996886692        1.1193831605        0.4863400293
 O          5.2556222890        1.9311008207        0.1648193592
 O          3.9754630995        0.7424612702        1.8725997893
 C          2.6277239689        1.9713338603       -0.0554702902
 C          2.2402407386        1.9234692704       -1.3791549102
 C          1.1302161184        2.6508553103       -1.7772122098
 C          0.4411482085        3.4235199401       -0.8564849996
 C          0.8473060588        3.4666962999        0.4673009003
 C          1.9469967690        2.7303109500        0.8739554000
 H          2.2820254492        2.7209483700        1.8987531399
 H          0.3099181688        4.0644745797        1.1862091905
 H         -0.4202657117        3.9910745400       -1.1715534993
 H          0.8060973782        2.6117552404       -2.8050262898
 H          2.7897196686        1.3204075606       -2.0837255704
 H          4.9780475690       -0.1192847691       -1.1865095810
 H          4.1272779790       -1.8865115191       -2.5308854911
 H          2.2572081792       -3.4270707793       -2.9928442310
 H          0.3041989695       -3.4982646699       -1.4931674906
 H          0.1716492098       -1.4482997304        1.6718557798
 C         -0.4854207799       -3.4297254804        1.2338202796
 C          0.3890263804       -4.1258150304        2.2318330793
 C         -0.9704412696       -3.6410004607        2.6352406897
 H         -1.7492946294       -4.3689787309        2.8062635197
 H         -1.0319853696       -2.7766505108        3.2807254598
 H          0.5464847306       -5.1882393504        2.1273902091
 H          1.2494108904       -3.5878926003        2.6018773092
 H         -0.9422917300       -4.0299050404        0.4585043496
