  62
        -98.93536926
 C         -2.4554206495       -0.9940966537       -0.5028631031
 C         -3.3501613667       -0.3865185817        0.4152771549
 C         -3.7461748065        1.0056021582        0.1472958765
 C         -3.2516968174        1.6219757810       -0.9397978089
 C         -3.4690988079        3.0463025146       -1.3694842424
 C         -2.3467659397        3.9503366629       -0.8312363767
 C         -2.5904664833        4.5144133982        0.5678468427
 H         -1.6744366166        5.0242842807        0.8751432684
 H         -3.3845313888        5.2627085004        0.5207136752
 C         -2.9553741111        3.4790563590        1.6349902682
 H         -2.3142085943        2.6011348468        1.5280168644
 H         -2.7382715843        3.9152255141        2.6121598861
 C         -4.4336564434        3.0631104518        1.5930426622
 H         -4.8637085549        3.1605968242        2.5919270126
 H         -4.9793558075        3.7552513822        0.9521034673
 C         -4.6970230718        1.6203870688        1.1377404689
 H         -5.7126542033        1.5539888484        0.7336299224
 H         -4.6617695415        0.9533299116        2.0047432909
 H         -1.4170314893        3.3741394078       -0.8361061595
 H         -2.2137247637        4.7904194440       -1.5160890669
 H         -4.4456465654        3.4007542740       -1.0534988638
 H         -3.4271325948        3.0518826010       -2.4606272004
 O         -2.4021172060        1.0031711195       -1.8018200240
 C         -1.9642717360       -0.2946581727       -1.6046277439
 O         -1.1614525157       -0.6805373420       -2.4798570679
 O         -3.8010732807       -0.9896037320        1.4265148321
 C         -2.0284170738       -2.4194955758       -0.1889873452
 C         -0.7071498012       -2.4127468078        0.5430895878
 C         -0.5949116510       -2.9137738002        1.8343123874
 C          0.6098054706       -2.8512290318        2.5139046990
 C          1.7234561552       -2.2792672447        1.9249644597
 C          1.6183304203       -1.7744229867        0.6363405191
 C          0.4174408611       -1.8564683505       -0.0500240229
 H          0.3446836595       -1.4521487167       -1.0492443911
 N          2.7438714526       -1.1483056658        0.0380126456
 S          3.0377304421        0.3967990514        0.6684632030
 O          3.1994248747        0.2804158335        2.0949462382
 O          2.0213325933        1.3247524273        0.2145965489
 C          4.6030830794        0.7788559481       -0.0917511907
 C          5.7567515377        0.2848057902        0.4857751985
 C          6.9742428092        0.5461658860       -0.1218596632
 C          7.0171374002        1.2910280106       -1.2911198936
 C          5.8504360073        1.7802089977       -1.8587215113
 C          4.6291965151        1.5213015016       -1.2561838806
 H          3.6978776971        1.8883781732       -1.6579176284
 H          5.8859190413        2.3607655315       -2.7665889336
 H          7.9656653641        1.4938526050       -1.7626969383
 H          7.8838969271        0.1692894739        0.3169447074
 H          5.6742479901       -0.2818852468        1.3981438278
 H          2.5894351919       -1.0313844960       -0.9569805251
 H          2.6583587813       -2.1950262419        2.4534697774
 H          0.6793863654       -3.2427545912        3.5174440850
 H         -1.4671144222       -3.3332474320        2.3143357013
 H         -2.7908004333       -2.8031783156        0.5022376125
 C         -1.9789310826       -3.3275581441       -1.4012342965
 C         -2.0811587698       -4.8089353018       -1.2016960824
 C         -3.2185835060       -4.0557440204       -1.8220470832
 H         -3.4083370915       -4.1787780739       -2.8776246745
 H         -4.1113591492       -3.9026628454       -1.2333331761
 H         -1.4877400373       -5.4542707182       -1.8307291859
 H         -2.2039371707       -5.1697342540       -0.1918305067
 H         -1.3252499415       -2.9668686551       -2.1843593929
