  62
        -98.93461340
 C         -2.4146720314       -1.1154132981        0.0084453073
 C         -2.4779214500        0.2930449187        0.1082237240
 C         -3.8076594286        0.8726783184        0.3772749249
 C         -4.8709035934        0.0577711632        0.5118659328
 C         -6.3224239829        0.3543442272        0.8277776296
 C         -6.8692773663        1.7761212586        0.7316993075
 C         -6.9264024014        2.3441103606       -0.6859125316
 H         -7.6943898056        1.8045248176       -1.2457118212
 H         -7.2337706931        3.3901942342       -0.6229984023
 C         -5.6283056339        2.2551972780       -1.4845017278
 H         -5.3623617618        1.2074342525       -1.6388198267
 H         -5.8122451607        2.6884855342       -2.4714350608
 C         -4.4331303055        2.9844972566       -0.8737377657
 H         -4.6967201034        4.0263298573       -0.6811178763
 H         -3.6279281335        2.9749486416       -1.6136706360
 C         -3.8742168341        2.3721002195        0.4224476901
 H         -4.4347222070        2.7065750292        1.2921801528
 H         -2.8435298272        2.7192200941        0.5429457708
 H         -6.3113873939        2.4394373119        1.3859064560
 H         -7.8930308191        1.7414318162        1.1140292197
 H         -6.9076568381       -0.2989604443        0.1729766224
 H         -6.4832405655       -0.0097626856        1.8484879014
 O         -4.7542803024       -1.3001453474        0.4183359750
 C         -3.5440443462       -1.9167247844        0.1603051232
 O         -3.6024433482       -3.1614550182        0.0972457720
 O         -1.4706895459        1.0400048902       -0.0117436351
 C         -1.0935507361       -1.7994990048       -0.2875900033
 C         -0.0540146943       -1.4196219932        0.7389483293
 C         -0.3949822206       -1.4409165276        2.0889632379
 C          0.5298924059       -1.0983459112        3.0555920032
 C          1.8152582318       -0.7312225443        2.6981620045
 C          2.1737954285       -0.7288678608        1.3555607751
 C          1.2423007535       -1.0775971150        0.3868079907
 H          1.5435876733       -1.0606294737       -0.6465704036
 N          3.4925932937       -0.4195220633        0.9778107665
 S          3.7984994056        0.3997303580       -0.4655371721
 O          3.0613527332        1.6426106184       -0.5135827579
 O          3.6049115275       -0.5053674384       -1.5698558088
 C          5.5411102395        0.7228021635       -0.2616128611
 C          6.4312688665       -0.3119659025       -0.4795434315
 C          7.7854483590       -0.0799980191       -0.2997041431
 C          8.2253402987        1.1758510487        0.0921774187
 C          7.3208000885        2.2051751157        0.3042936995
 C          5.9644952312        1.9791799812        0.1277949873
 H          5.2257341449        2.7511246550        0.2728434090
 H          7.6657939570        3.1812711397        0.6052467135
 H          9.2800129872        1.3542654283        0.2303718994
 H          8.4920893977       -0.8768872694       -0.4665350103
 H          6.0441971589       -1.2674201154       -0.7926635378
 H          4.0208089500       -0.0065899577        1.7351278269
 H          2.5351854266       -0.4538851957        3.4532284362
 H          0.2466015347       -1.1095507131        4.0975279816
 H         -1.4024076646       -1.7199938576        2.3680467815
 H         -1.2838610796       -2.8797409015       -0.1965598527
 C         -0.6652014339       -1.5012149731       -1.7097741613
 C          0.1353234280       -2.5020278619       -2.4854676143
 C         -1.3007294232       -2.2569522802       -2.8363291985
 H         -1.5283439620       -1.7273786469       -3.7493173650
 H         -2.0276870331       -3.0125819476       -2.5750928322
 H          0.9030587054       -2.1389224939       -3.1525722143
 H          0.3843435486       -3.4301147884       -1.9932420700
 H         -0.4554814778       -0.4484943633       -1.8689357180
