  62
        -98.94405824
 C          1.2546482261        1.2573774625        0.1385633295
 C          1.4189788336       -0.0952253750        0.5380114409
 C          2.5419402742       -0.8220634060       -0.0676697267
 C          3.3069662993       -0.2005036899       -0.9830264182
 C          4.5112627062       -0.8008126296       -1.6476512911
 C          5.7925346548       -0.4863041894       -0.8628191554
 C          5.6878794640       -0.7822920587        0.6333003471
 H          6.6584728727       -0.5538140949        1.0790948089
 H          4.9609049817       -0.1009865738        1.0813886796
 C          5.2987875074       -2.2289177730        0.9683064557
 H          5.4731288837       -2.8692065444        0.1029414930
 H          5.9452610768       -2.5877576065        1.7720343239
 C          3.8557340017       -2.4028909294        1.4459205368
 H          3.6500807944       -1.6954829834        2.2533014080
 H          3.7552507432       -3.4095315970        1.8605400244
 C          2.7709377882       -2.2398707874        0.3734698072
 H          3.0036214482       -2.8763639080       -0.4822637401
 H          1.8231756972       -2.5698911911        0.8063448708
 H          6.6124035093       -1.0640895381       -1.2934737600
 H          6.0231339641        0.5743925591       -0.9862326127
 H          4.3773121945       -1.8776532714       -1.7277455640
 H          4.5977591430       -0.3778305939       -2.6498236972
 O          3.0913851062        1.0784528567       -1.3763642949
 C          2.0740500639        1.8458790897       -0.8255317479
 O          2.0258081571        3.0036835773       -1.2829954289
 H         -2.1089042106        0.5276393802        0.9760892371
 C         -2.1360865143        1.1688606294        0.1077119895
 C         -1.0781461978        2.0309226067       -0.1456844559
 C         -1.1330295675        2.8502573010       -1.2686901789
 C         -2.2276556256        2.8034220515       -2.1122059737
 C         -3.2793630444        1.9396970384       -1.8610064147
 C         -3.2315221905        1.1144982007       -0.7429337823
 N         -4.2859436971        0.2382354542       -0.4637060358
 S         -4.1055258205       -1.1136257133        0.4867913693
 O         -5.2649516095       -1.9209156938        0.1668093577
 O         -3.9785806415       -0.7357897099        1.8725641201
 C         -2.6370525501       -1.9712854203       -0.0552232166
 C         -1.9497598846       -2.7205206285        0.8772396398
 C         -0.8526076044       -3.4606988027        0.4705854914
 C         -0.4556668678       -3.4310437854       -0.8563645700
 C         -1.1511237550       -2.6677433234       -1.7801795098
 C         -2.2585350075       -1.9365232885       -1.3819391027
 H         -2.8131741247       -1.3404556348       -2.0884260809
 H         -0.8338834654       -2.6390548627       -2.8104870603
 H          0.4036868577       -4.0017533206       -1.1715275194
 H         -0.3100948543       -4.0508010478        1.1919844744
 H         -2.2775950146       -2.7006230691        1.9042128343
 H         -4.9800439589        0.1282196582       -1.1867820240
 H         -4.1321126731        1.9040985095       -2.5215027318
 H         -2.2606284558        3.4437942479       -2.9806367976
 H         -0.3024319302        3.5025802780       -1.4865416771
 C          0.1117658768        2.0257254055        0.7826373311
 H         -0.1666975696        1.4371214623        1.6677259777
 C          0.4897097605        3.4205673540        1.2371815527
 C         -0.3928023365        4.1171844077        2.2277231848
 C          0.9618434533        3.6291851729        2.6433302643
 H          1.7404467654        4.3554010668        2.8228624134
 H          1.0154285863        2.7638149699        3.2881525223
 H         -0.5473030900        5.1800148589        2.1229799357
 H         -1.2578279126        3.5804767492        2.5886371944
 H          0.9547093510        4.0206436769        0.4666252178
 O          0.6654835692       -0.6638399675        1.3724893722
