  62
        -98.94500710
 C         -2.4556224940       -1.2257253830       -0.1146786444
 C         -3.3907127849       -0.6903097656        0.8101798657
 C         -4.1911434180        0.4487497350        0.3460337697
 C         -4.0074448902        0.9128159814       -0.9031429360
 C         -4.7095394536        2.1023528967       -1.4895229930
 C         -3.9078099674        3.3903795994       -1.2555254861
 C         -3.4506467154        3.5800866025        0.1910526589
 H         -2.7224700628        2.8038125077        0.4396945444
 H         -2.9248012927        4.5361143127        0.2419393585
 C         -4.5862136013        3.5641313680        1.2241373860
 H         -4.4305693276        4.3859786332        1.9260512946
 H         -5.5409452180        3.7387861957        0.7268367829
 C         -4.6728779208        2.2810128584        2.0527118988
 H         -5.3534512116        2.4621381620        2.8887658758
 H         -3.6906581822        2.0506695674        2.4732416440
 C         -5.1818518098        1.0397671601        1.3090394943
 H         -5.3763276479        0.2625357945        2.0536534860
 H         -6.1199413409        1.2732682736        0.8017792114
 H         -4.5224911999        4.2397176129       -1.5593748555
 H         -3.0202641434        3.3675601592       -1.8927013546
 H         -5.6978324639        2.1909009418       -1.0425837390
 H         -4.8183008247        1.9430997644       -2.5636599818
 O         -3.1150396678        0.3680536403       -1.7666530265
 C         -2.3062729540       -0.6971986871       -1.3967725338
 O         -1.5298880308       -1.0651766547       -2.3016981269
 O         -3.5502703880       -1.1506710306        1.9716963745
 C         -1.5928196589       -2.3812241601        0.3701416218
 C         -0.2169013957       -1.8556667278        0.7014143841
 C          0.1236836496       -1.5621681179        2.0177178977
 C          1.3583247143       -1.0174506124        2.3223679970
 C          2.2740494220       -0.7450276040        1.3214439525
 C          1.9368078269       -1.0200250935        0.0029999124
 C          0.7074465511       -1.5875064356       -0.2981174400
 H          0.4463091234       -1.7749399841       -1.3284607915
 N          2.8514434002       -0.7165655363       -1.0252587085
 S          3.3781253868        0.8795194650       -1.1029198245
 O          2.4042459505        1.7889676108       -0.5425951547
 O          3.7450018564        1.0977822478       -2.4853414674
 C          4.8568070505        0.8785618121       -0.1095688080
 C          4.9718680181        1.7456599715        0.9591575306
 C          6.1352735567        1.7292733605        1.7130371006
 C          7.1573938321        0.8516042658        1.3858010434
 C          7.0270746617       -0.0112686205        0.3076376355
 C          5.8671997843        0.0005737736       -0.4503737307
 H          5.7260996308       -0.6497492799       -1.2973875316
 H          7.8239577239       -0.6924742403        0.0563940798
 H          8.0608719333        0.8400437813        1.9747628072
 H          6.2381414794        2.3994074940        2.5513762827
 H          4.1479721356        2.4060008127        1.1786912730
 H          2.5230944360       -1.0086939401       -1.9357000928
 H          3.2340055832       -0.3112065535        1.5495255708
 H          1.6091830342       -0.7983062211        3.3490497716
 H         -0.5993130389       -1.7469766927        2.7993347075
 H         -2.0603081624       -2.7120651992        1.3070960244
 C         -1.5606869232       -3.5519031698       -0.5903604302
 C         -1.0911135482       -4.8846510755       -0.0913828193
 C         -2.5395711751       -4.6717426118       -0.4106203096
 H         -2.9502533201       -5.1414538236       -1.2917915759
 H         -3.2383847217       -4.5980827216        0.4097755332
 H         -0.5041040047       -5.5041716450       -0.7517596886
 H         -0.8066093849       -4.9547140598        0.9475262695
 H         -1.3107137654       -3.2758921363       -1.6064599835
