  62
        -98.93524640
 C         -2.4489013101       -1.4104752603       -0.0147570293
 C         -3.1856019101       -0.7753511896        1.0168263002
 C         -4.0720538201        0.3334658101        0.6250156695
 C         -4.1342678602        0.6868647792       -0.6700405607
 C         -4.9197154602        1.8143451888       -1.2809467015
 C         -4.0611009602        3.0873715287       -1.3740606324
 C         -4.0881752502        3.9753148996       -0.1307170330
 H         -3.3500728202        4.7666127295       -0.2813417135
 H         -5.0680523802        4.4506409996       -0.0506385332
 C         -3.7802442102        3.2626878205        1.1887909875
 H         -2.9364989802        2.5828713304        1.0515987480
 H         -3.4669991602        4.0185282410        1.9117377070
 C         -4.9849929001        2.4981947408        1.7576895281
 H         -5.8835800802        2.7968636104        1.2183215979
 H         -5.1375959701        2.7887113515        2.7991241779
 C         -4.8556872101        0.9687568508        1.7410549191
 H         -4.3527685901        0.6365905314        2.6546986593
 H         -5.8573325701        0.5261261008        1.7582326094
 H         -3.0317307402        2.7851389886       -1.5862108222
 H         -4.4068308603        3.6824199281       -2.2218743627
 H         -5.1821528902        1.4974057481       -2.2924796212
 H         -5.8330173902        1.9961788091       -0.7224717016
 O         -3.4060431102        0.0572848786       -1.6310466103
 C         -2.5445920802       -0.9904121512       -1.3411178396
 O         -1.9487650102       -1.4335553619       -2.3417116893
 H          0.0344605399       -1.1408669311       -1.2684937996
 C          0.5259378499       -1.3344780405       -0.3258447095
 C         -0.1405126501       -2.0640955498        0.6496578810
 C          0.5027102000       -2.2975940690        1.8589856212
 C          1.7810657800       -1.8147742088        2.0808444008
 C          2.4427887299       -1.0927524695        1.1038596103
 C          1.8059131899       -0.8484294503       -0.1059863898
 N          2.4692048098       -0.1144546910       -1.1088711104
 S          3.0160897598        1.4181745193       -0.6835301714
 O          2.2116220798        1.9906231300        0.3721381782
 O          3.0768186498        2.1627887785       -1.9223483019
 C          4.6729418398        1.1215214797       -0.1035765113
 C          5.0473409999        1.5295817706        1.1615306684
 C          6.3447170999        1.2873962909        1.5863315686
 C          7.2389547299        0.6459937304        0.7429784490
 C          6.8474988598        0.2448969095       -0.5259050907
 C          5.5527166598        0.4847198392       -0.9571116209
 H          5.2078507798        0.1926113885       -1.9349586307
 H          7.5455782898       -0.2535468509       -1.1789085304
 H          8.2472234699        0.4577696806        1.0764467791
 H          6.6509088299        1.5985564716        2.5721972683
 H          4.3152349599        2.0185990410        1.7842583981
 H          1.9420236698       -0.0653303816       -1.9699988904
 H          3.4372567499       -0.7126338093        1.2715620500
 H          2.2675674100       -2.0013711382        3.0259092409
 H         -0.0136166600       -2.8453852885        2.6335843516
 C         -1.5434954801       -2.5570718400        0.4032583614
 H         -1.9497222900       -2.8896949894        1.3714056516
 C         -1.6060685701       -3.7458243907       -0.5464473578
 C         -0.4661391001       -4.1851319812       -1.4110605475
 C         -0.8548615300       -5.0024573704       -0.2182501670
 H         -1.3413356200       -5.9532091906       -0.3739130063
 H         -0.1977365200       -4.9745921298        0.6378669830
 H          0.4559548999       -3.6275628412       -1.3680155279
 H         -0.7037168801       -4.5534126019       -2.3974475973
 H         -2.5983995901       -3.8691227910       -0.9688401877
 O         -3.1066614600       -1.1272375388        2.2247018005
