  62
        -98.94438861
 C          2.3449637338        1.1280018150        0.2405642499
 C          2.3763251361       -0.1321768487       -0.4046808650
 C          3.3605932197       -1.0904757130        0.1164020526
 C          4.1303221117       -0.7608243711        1.1688614862
 C          5.1586832220       -1.6397514110        1.8273870476
 C          6.5279788880       -1.6268704352        1.1339811162
 C          6.5877554671       -2.3673469167       -0.2026471210
 H          7.6424177391       -2.4658783336       -0.4671346298
 H          6.1882582689       -3.3741993439       -0.0771133693
 C          5.8553853447       -1.6606291415       -1.3517767629
 H          5.6794675883       -0.6162785375       -1.0841449643
 H          6.4883950355       -1.6609011203       -2.2419498257
 C          4.5236517742       -2.3009854447       -1.7438659972
 H          4.0750297575       -1.7003644926       -2.5392607940
 H          4.7005711505       -3.3038615405       -2.1389767774
 C          3.5092603125       -2.4006294668       -0.5968567970
 H          3.8063911534       -3.1828704739        0.1014919627
 H          2.5352021517       -2.6622280412       -1.0185506400
 H          6.8363592605       -0.5889298507        0.9897061806
 H          7.2420511070       -2.0942837998        1.8158542195
 H          5.2839581798       -1.2615518358        2.8442375822
 H          4.7854724379       -2.6629107142        1.8811887147
 O          4.0417962196        0.4465921684        1.7869294953
 C          3.1637960431        1.4165723222        1.3358850780
 O          3.2027700999        2.4814550428        1.9838406235
 O          1.6341972067       -0.4549680256       -1.3699846066
 C          1.3822171409        2.2240144305       -0.1919784178
 C         -0.0138040717        1.8013533653        0.1962119558
 C         -0.4657726666        2.0507654278        1.4890961929
 C         -1.7135750776        1.6170439431        1.8954358161
 C         -2.5328000533        0.9170100204        1.0261739438
 C         -2.0827045695        0.6466382292       -0.2584166819
 C         -0.8381650915        1.1039186556       -0.6724002319
 H         -0.4948126211        0.8740507789       -1.6683952049
 N         -2.8991524086       -0.0742878256       -1.1463909279
 S         -3.6528652643       -1.4653971006       -0.5876306962
 O         -2.9053006122       -2.0961366615        0.4758342312
 O         -3.8932564125       -2.2660993206       -1.7685591161
 C         -5.2152336619       -0.8719782492        0.0302687966
 C         -5.9882591784       -0.0857608294       -0.8017063059
 C         -7.2109681610        0.3754842633       -0.3411235383
 C         -7.6397956783        0.0422793816        0.9351399982
 C         -6.8540632068       -0.7508922642        1.7570032780
 C         -5.6291886337       -1.2147107151        1.3024678072
 H         -4.9819441426       -1.8286654485        1.9086853240
 H         -7.1886108300       -1.0092852521        2.7488897219
 H         -8.5916884888        0.4029893133        1.2915968805
 H         -7.8244226817        0.9929272700       -0.9773172205
 H         -5.6200060937        0.1486810804       -1.7863732327
 H         -2.4623294313       -0.2428815596       -2.0415559049
 H         -3.5016300159        0.5649869199        1.3406753356
 H         -2.0523270518        1.8216776329        2.8997359917
 H          0.1837765845        2.5760581560        2.1756300581
 H          1.6464903729        3.1065709216        0.4052666575
 C          1.5327498978        2.5684995137       -1.6590693643
 C          0.9282092197        3.8378611544       -2.1768116523
 C          2.4163048431        3.7118897260       -2.0537709809
 H          3.0038210024        3.6206247071       -2.9551427187
 H          2.9127220396        4.2559610589       -1.2634139732
 H          0.4920355130        3.8370351084       -3.1639765787
 H          0.4129480480        4.4678469759       -1.4677134099
 H          1.5300697450        1.7029211945       -2.3092387396
