  62
        -98.93900069
 C         -2.0915071229       -0.7572584472        0.5663746326
 C         -2.0233162472       -0.0232734522       -0.6398303070
 C         -1.9958506772        1.4443991740       -0.5172402489
 C         -1.9996408723        2.0055449618        0.7058032497
 C         -1.8993846985        3.4537497781        1.1397367693
 C         -2.1062874904        4.5862190357        0.1373726252
 C         -3.5303179216        4.7091353498       -0.4033379927
 H         -4.1823799646        5.0400791794        0.4087117444
 H         -3.5366275717        5.4835669950       -1.1732846284
 C         -4.1266475161        3.4284373683       -0.9814163630
 H         -4.2185875524        2.6783562440       -0.1933427343
 H         -5.1375843522        3.6574713414       -1.3290373205
 C         -3.3580654281        2.8220362453       -2.1538943907
 H         -3.2167938542        3.5759452890       -2.9305834531
 H         -3.9740384182        2.0214905903       -2.5717326386
 C         -1.9876526577        2.2139982325       -1.8061289606
 H         -1.7253628372        1.4930057632       -2.5860476341
 H         -1.2047363160        2.9689159422       -1.7915061975
 H         -1.8715603428        5.5144548760        0.6655797921
 H         -1.3936570829        4.4981492189       -0.6773819490
 H         -2.6116349391        3.5685544919        1.9634101510
 H         -0.9000080884        3.5559408151        1.5786990345
 O         -2.0518306700        1.2523770878        1.8456515793
 C         -2.0869125233       -0.1293597862        1.8082593452
 O         -2.1208299527       -0.6754218496        2.9317670888
 H          0.3742471026       -1.2728377248        0.9517380327
 C          0.4000493667       -2.0436413644        0.1937317779
 C         -0.7717418658       -2.7041373699       -0.1535541926
 C         -0.7089414059       -3.7057358995       -1.1130718852
 C          0.4930300005       -4.0042155910       -1.7323999128
 C          1.6454409213       -3.3063929023       -1.4224382993
 C          1.5962471797       -2.3169662137       -0.4460674385
 N          2.7474777286       -1.5952082566       -0.0832784947
 S          2.5559482912        0.0201356460        0.3743904151
 O          2.2158882729        0.0675168221        1.7758730462
 O          1.6595098131        0.7031490808       -0.5302329736
 C          4.2255863044        0.6068592819        0.1486775018
 C          5.1535846808        0.3722610152        1.1457207835
 C          6.4601377737        0.7943856469        0.9576211868
 C          6.8153714011        1.4392490388       -0.2179667326
 C          5.8727972149        1.6694578720       -1.2088158464
 C          4.5644486901        1.2488981852       -1.0274193696
 H          3.7948494965        1.4124230476       -1.7649042233
 H          6.1505607492        2.1742235781       -2.1200055006
 H          7.8326430922        1.7672856853       -0.3616108298
 H          7.1945642615        0.6196335653        1.7271279503
 H          4.8269684831       -0.1242563688        2.0445865428
 H          3.5028717715       -1.7046690502       -0.7465521009
 H          2.5743754396       -3.5214483155       -1.9282259983
 H          0.5276380208       -4.7791003999       -2.4831752197
 H         -1.6029955934       -4.2412120710       -1.3877278311
 C         -2.0474191570       -2.2745027676        0.5317683952
 H         -2.0031969869       -2.6023180916        1.5813608390
 C         -3.2996977084       -2.8362827192       -0.1074676288
 C         -3.8150598933       -4.1843220818        0.2958210221
 C         -4.5449407610       -2.9458618055        0.7183476768
 H         -5.4929434335       -2.7188260208        0.2544483641
 H         -4.4798841729       -2.6379418052        1.7521316857
 H         -4.2673355724       -4.8102274313       -0.4585416162
 H         -3.2620299678       -4.7260736844        1.0481944212
 H         -3.4090075653       -2.5304223175       -1.1414761217
 O         -1.9832299669       -0.5677739507       -1.7748988672
