  62
        -98.94509435
 C          0.8979244739        1.1521810477        0.7284421710
 C          1.1393887892        0.4587867811       -0.4834187333
 C          2.0845014801       -0.6637305966       -0.3878493508
 C          2.5139256756       -1.0785610209        0.8160526235
 C          3.4699262013       -2.2111998231        1.0749815253
 C          4.9464551242       -1.8027213025        0.9753551504
 C          5.4516649603       -1.5394623190       -0.4440387923
 H          6.5401679533       -1.4752505600       -0.3884750861
 H          5.2082684716       -2.3921285838       -1.0785077915
 C          4.9138002878       -0.2504271572       -1.0814921198
 H          5.7363123738        0.2934296752       -1.5514112618
 H          4.5074208098        0.3995906012       -0.3029333118
 C          3.8451844817       -0.4704653270       -2.1527818640
 H          3.5158352508        0.5079495551       -2.5118542701
 H          4.2809051877       -1.0080285265       -2.9975966586
 C          2.6102714749       -1.2418245195       -1.6661740024
 H          1.8245776058       -1.1469149164       -2.4187369836
 H          2.8559010299       -2.2949404259       -1.5377948674
 H          5.1057694111       -0.9138384164        1.5905768962
 H          5.5395829359       -2.6132547114        1.4052595599
 H          3.2742363732       -3.0292236343        0.3812866796
 H          3.2761763796       -2.5589463636        2.0922055682
 O          2.0957561611       -0.5037978059        1.9770586616
 C          1.3344764943        0.6544550207        1.9580910862
 O          1.1018706457        1.1300720486        3.0886685539
 O          0.6226160407        0.7570766271       -1.5886596953
 C          0.1036102787        2.4451362655        0.7612135143
 C         -1.1445311530        2.3169545501       -0.0749320239
 C         -1.4191471952        3.1065827863       -1.1837154069
 C         -2.5948299165        2.9305903838       -1.8914651217
 C         -3.5150955057        1.9709818033       -1.5125434248
 C         -3.2499761159        1.1779054855       -0.4014572071
 C         -2.0739539549        1.3573230506        0.3076499815
 H         -1.8771318436        0.7437358788        1.1755927718
 N         -4.1737831523        0.2112191759        0.0217966586
 S         -3.6776852120       -1.1744316440        0.7950903284
 O         -4.8033490121       -2.0756390270        0.6567245416
 O         -3.2792880875       -0.8832643853        2.1502498079
 C         -2.3022029605       -1.8340526820       -0.1288777290
 C         -2.4071834871       -1.9395052765       -1.5012971524
 C         -1.3820983219       -2.5464146709       -2.2071763081
 C         -0.2827952556       -3.0514283365       -1.5316448507
 C         -0.1886413592       -2.9326907986       -0.1544557027
 C         -1.2043413652       -2.3127717898        0.5547910245
 H         -1.1634095421       -2.1912736135        1.6266044192
 H          0.6673114878       -3.3208117979        0.3738299068
 H          0.5055697780       -3.5404763922       -2.0811023694
 H         -1.4458435774       -2.6291062003       -3.2801445193
 H         -3.2814905035       -1.5559309272       -2.0011866806
 H         -4.9534404581        0.0509251208       -0.5980583904
 H         -4.4312926834        1.8342624453       -2.0661994226
 H         -2.7945047506        3.5456050909       -2.7557175275
 H         -0.7030423419        3.8432669225       -1.5080728609
 H         -0.2127551656        2.5608919662        1.8115720795
 C          0.9343804901        3.6742381004        0.4177373474
 C          2.3969480009        3.7290477114        0.7419645550
 C          1.9477078500        3.6760139099       -0.6856149071
 H          2.0495550825        4.5678324423       -1.2864509576
 H          2.0892122946        2.7596793016       -1.2360559208
 H          2.8036546289        4.6536061772        1.1233786473
 H          2.8463111976        2.8459709658        1.1735249883
 H          0.3769842063        4.5932633957        0.5707983034
