  62
        -98.94455976
 C         -2.6165973177       -1.2377452405        0.1331072428
 C         -2.6440592368       -0.2902619262       -0.9187282486
 C         -3.4656878425        0.9073496712       -0.6853006372
 C         -4.1380725291        1.0397040368        0.4716446673
 C         -4.9579194153        2.2347428823        0.8602982851
 C         -4.1131942959        3.2616886913        1.6273435549
 C         -2.7858599275        3.6040166853        0.9497241657
 H         -2.2940878832        4.3633002882        1.5619074705
 H         -2.1379051376        2.7236208025        0.9574127732
 C         -2.9208833325        4.1196663838       -0.4898368268
 H         -3.9427112716        4.4564381561       -0.6690143822
 H         -2.2661982232        4.9850125666       -0.6131948632
 C         -2.5247215178        3.1075825017       -1.5666243810
 H         -2.4423490736        3.6394440763       -2.5185761713
 H         -1.5363788473        2.6985163733       -1.3364724565
 C         -3.4994769868        1.9412990510       -1.7754990466
 H         -4.5114129083        2.3283500473       -1.9098015838
 H         -3.2049106172        1.4225186857       -2.6924175853
 H         -3.8951388606        2.8597413392        2.6193864841
 H         -4.7039458819        4.1711041377        1.7507674380
 H         -5.3766142103        2.6892415303       -0.0353476859
 H         -5.7734650654        1.8975587495        1.5021386594
 O         -4.1059089294        0.1017803920        1.4510943955
 C         -3.3381906027       -1.0405117252        1.3157481785
 O         -3.3857379117       -1.8048280292        2.2998506670
 H         -0.0192652299       -1.1970201398       -1.4996620757
 C          0.4227449549       -1.4801151160       -0.5560922234
 C         -0.3406092696       -2.1731789435        0.3727256594
 C          0.2335341305       -2.4927967998        1.5979385502
 C          1.5373838776       -2.1264990068        1.8823143753
 C          2.2914440343       -1.4278174828        0.9562034283
 C          1.7224844775       -1.0945330037       -0.2656159253
 N          2.4727862503       -0.3566376703       -1.2040181244
 S          3.0394624616        1.1367348958       -0.6746712902
 O          2.1949496357        1.6861993814        0.3620681153
 O          3.1969382560        1.9372685180       -1.8694983125
 C          4.6510279965        0.7599970045       -0.0169867560
 C          4.9618147659        1.0977214287        1.2854854495
 C          6.2249277062        0.7978257406        1.7721435004
 C          7.1493540405        0.1694474383        0.9518984381
 C          6.8220857393       -0.1611270856       -0.3549058458
 C          5.5619834211        0.1372806140       -0.8479420579
 H          5.2678796244       -0.0985118772       -1.8569732623
 H          7.5436590001       -0.6499240685       -0.9894600344
 H          8.1306529442       -0.0641507249        1.3336580772
 H          6.4809405192        1.0542806470        2.7876394117
 H          4.2077799629        1.5790199424        1.8878233040
 H          1.9871539538       -0.2418173608       -2.0834543480
 H          3.3038777426       -1.1296866816        1.1754474766
 H          1.9693990329       -2.3823998985        2.8377948153
 H         -0.3599641212       -3.0127520946        2.3362364044
 C         -1.7840018240       -2.5121804238        0.0857629414
 H         -2.1523368338       -3.1355560641        0.9110557440
 C         -1.9469732288       -3.2857083232       -1.2072434773
 C         -1.5690590644       -4.7350812212       -1.2354166710
 C         -3.0117954243       -4.3349606225       -1.3005564385
 H         -3.5399035244       -4.4499982728       -2.2351981166
 H         -3.6280301513       -4.5004580726       -0.4286505909
 H         -1.1039108179       -5.1284997328       -2.1261071848
 H         -1.2067686517       -5.1741913134       -0.3182241746
 H         -1.7563986421       -2.6965738955       -2.0941136788
 O         -2.0255045098       -0.4130305855       -2.0109477240
