  62
        -98.94484245
 C         -1.9398113645       -0.5599627124       -0.5907091619
 C         -3.0213337751       -1.3232909883       -0.0874991087
 C         -4.3515926345       -0.7232057060       -0.2338264925
 C         -4.4802244720        0.4753723028       -0.8315528263
 C         -5.7722557965        1.2050998857       -1.0816480286
 C         -6.2678126044        2.0273155298        0.1158841480
 C         -6.8254629107        1.2083210537        1.2806541872
 H         -7.5778664377        0.5132176217        0.9067567242
 H         -7.3315298886        1.9070348750        1.9498120829
 C         -5.7633363814        0.4405500797        2.0799316107
 H         -5.9381869473        0.5835346431        3.1486598526
 H         -4.7751548024        0.8512834122        1.8597742908
 C         -5.7423683718       -1.0660870107        1.8218836639
 H         -6.6815144365       -1.5089015558        2.1607515040
 H         -4.9321427068       -1.5033945614        2.4107349360
 C         -5.5224393400       -1.4523662314        0.3533030768
 H         -6.4236104041       -1.2549263368       -0.2266925541
 H         -5.3040013081       -2.5220891171        0.3088305922
 H         -7.0585316144        2.6876885641       -0.2476438638
 H         -5.4475900804        2.6556196692        0.4709737582
 H         -6.5429979794        0.4940094164       -1.3804211966
 H         -5.5866182399        1.8871774035       -1.9141958200
 O         -3.4164528865        1.1734950426       -1.3106402661
 C         -2.1214274063        0.6876679258       -1.1872558474
 O         -1.2472685376        1.4465696309       -1.6469650996
 O         -2.8807856248       -2.4515347857        0.4553829999
 C         -0.5336056544       -1.1221332479       -0.4664040355
 C          0.2951890175       -0.2025909987        0.3946771332
 C         -0.0818234401       -0.0265640925        1.7249204652
 C          0.6143876725        0.8345880201        2.5491001707
 C          1.7083087454        1.5330338512        2.0669792880
 C          2.0933268171        1.3658744166        0.7426710225
 C          1.3916630100        0.4959516656       -0.0833327317
 H          1.6992624139        0.4043227478       -1.1107055647
 N          3.1823862319        2.0854240848        0.2269284304
 S          4.3298279998        1.3585423638       -0.7439355868
 O          5.4144664790        2.3139446931       -0.7937462159
 O          3.7579585606        0.9741559203       -2.0082816861
 C          4.8410127344       -0.0832230641        0.1731198134
 C          4.2115911446       -1.2915542505       -0.0470657693
 C          4.5802406260       -2.3861921870        0.7193681039
 C          5.5642301703       -2.2547568748        1.6868880424
 C          6.1889094070       -1.0340267634        1.8939912153
 C          5.8223640028        0.0647343075        1.1343062436
 H          6.2894314663        1.0288071074        1.2545113009
 H          6.9571155622       -0.9357986162        2.6439905798
 H          5.8473660733       -3.1098352415        2.2802183395
 H          4.0966164798       -3.3362877201        0.5572910901
 H          3.4542567952       -1.3580938278       -0.8102764459
 H          3.6197176365        2.7107031019        0.8877297985
 H          2.2503527469        2.2133189531        2.7062424207
 H          0.3070932179        0.9637547824        3.5758884078
 H         -0.9394282360       -0.5697793920        2.0977573384
 H         -0.6526424021       -2.0771062532        0.0659065052
 C          0.0572158513       -1.3993117274       -1.8314912242
 C          1.1174313646       -2.4466028877       -1.9882110180
 C         -0.2651307331       -2.6953298561       -2.5106767563
 H         -0.4243431871       -2.6914230164       -3.5785676927
 H         -0.8958943745       -3.3916031421       -1.9774877543
 H          1.9116037780       -2.2723653639       -2.6993673733
 H          1.4212328831       -2.9830688186       -1.1018092767
 H          0.1170338024       -0.5153771160       -2.4567015377
