  62
        -98.94107472
 C          1.5654223112        1.6709483569        0.3824460385
 C          2.0303802259        1.1013831105       -0.8284673383
 C          3.0381820714        0.0383675915       -0.6900212735
 C          3.4324216832       -0.3665318189        0.5300698907
 C          4.4773797126       -1.4078557647        0.8290042472
 C          3.9745746866       -2.8573352574        0.7798127783
 C          3.6802539343       -3.3987790696       -0.6196388671
 H          4.5447902385       -3.2324563473       -1.2630695629
 H          3.5472234512       -4.4782078799       -0.5256485194
 C          2.4256498985       -2.8026500995       -1.2723893430
 H          1.8144217250       -2.3240824650       -0.5052495942
 H          1.8209272330       -3.6023721938       -1.7067530291
 C          2.7079263204       -1.7907520076       -2.3823872684
 H          3.2098755185       -2.2898035435       -3.2144000170
 H          1.7518469137       -1.4098966097       -2.7522121068
 C          3.5628260047       -0.5942777030       -1.9443736520
 H          4.5980017041       -0.9062651546       -1.8061749373
 H          3.5272218661        0.1583886848       -2.7360732957
 H          3.0779343782       -2.9431590174        1.3977027894
 H          4.7478647486       -3.4827692952        1.2315373395
 H          5.3125893457       -1.2912709430        0.1373214975
 H          4.8346256159       -1.2032545617        1.8406626879
 O          2.9261194587        0.1718793296        1.6710995816
 C          1.9962488817        1.1982957907        1.6265674262
 O          1.6362857175        1.6066702966        2.7467826120
 H         -0.5032969797        1.2095125621       -1.4345185986
 C         -1.2126858216        1.4215665603       -0.6477565321
 C         -0.8404933236        2.2665689429        0.3891635332
 C         -1.7627884811        2.5329547002        1.3931771505
 C         -3.0255227573        1.9649843132        1.3591188299
 C         -3.3868747851        1.1100801190        0.3333811640
 C         -2.4688342110        0.8373543351       -0.6727733079
 N         -2.8030892911       -0.0899837933       -1.6816904582
 S         -3.2436690396       -1.6028474837       -1.1039401196
 O         -2.7758290097       -2.5533486018       -2.0878845468
 O         -4.6621122888       -1.6162884141       -0.8467384831
 C         -2.3609783250       -1.7865903848        0.4389642679
 C         -3.0653650800       -1.9944571687        1.6068648044
 C         -2.3721101522       -2.0749583730        2.8040633118
 C         -0.9936615513       -1.9325695755        2.8142139627
 C         -0.3001953563       -1.7255690201        1.6319257630
 C         -0.9860420791       -1.6551299419        0.4310485392
 H         -0.4678301464       -1.4948487664       -0.5019903701
 H          0.7713919625       -1.5980285198        1.6479433373
 H         -0.4510627697       -1.9747892286        3.7453920053
 H         -2.9075659833       -2.2371902349        3.7254491235
 H         -4.1383975054       -2.0816851107        1.5550174486
 H         -2.0812620875       -0.1813580480       -2.3831712417
 H         -4.3555800172        0.6376721562        0.3009661869
 H         -3.7313827861        2.1800270004        2.1463761862
 H         -1.4775621432        3.1727248421        2.2151076640
 C          0.5617781445        2.8145142470        0.4394062068
 H          0.7043716154        3.2706637254        1.4310399130
 C          0.8332721139        3.8931189755       -0.6012596062
 C         -0.1045836194        4.2273856053       -1.7190219757
 C          0.0471999248        5.1705215130       -0.5661704651
 H          0.5660668950        6.1043508445       -0.7206733773
 H         -0.7686577114        5.2289955352        0.1387330075
 H         -1.0257499933        3.6725793349       -1.8039056603
 H          0.3296123212        4.4933905728       -2.6709293087
 H          1.8912610686        3.9828829023       -0.8251845564
 O          1.6471907352        1.4471203579       -1.9766273611
