  62
        -98.94850326
 C          1.2631014613        1.5088170786        0.5075093489
 C          2.1730793316        1.1563104758       -0.5180757972
 C          3.1926075431        0.1623766818       -0.1543818421
 C          3.2106190481       -0.3422149768        1.0924608905
 C          4.1703288528       -1.3868864990        1.5823246354
 C          3.5969770536       -2.8001683556        1.4119716325
 C          3.0337843099       -3.0823036046        0.0185929613
 H          2.7097553133       -4.1259382030        0.0080230506
 H          2.1342038042       -2.4805424304       -0.1361152588
 C          4.0235505573       -2.8445709089       -1.1305241197
 H          5.0442315314       -2.8448476278       -0.7451752245
 H          3.9415983824       -3.6758227997       -1.8341917784
 C          3.7819324425       -1.5623236956       -1.9295678523
 H          2.7278193615       -1.5063815494       -2.2153927521
 H          4.3693943697       -1.6201810906       -2.8500586926
 C          4.1609409577       -0.2536150366       -1.2246863541
 H          5.1745767630       -0.3290922093       -0.8257564204
 H          4.1421759651        0.5447942065       -1.9723795455
 H          2.7889904870       -2.9384335187        2.1343840439
 H          4.3852118123       -3.5207272810        1.6400565930
 H          4.3598322052       -1.2086251566        2.6425226212
 H          5.1069324902       -1.2958271723        1.0355910899
 O          2.3224174981        0.0229220356        2.0516901750
 C          1.3069872621        0.9232061077        1.7715124178
 O          0.5188733614        1.1219429593        2.7199485879
 O          2.1359139056        1.6428682022       -1.6786356748
 C          0.1328234182        2.4771620560        0.2153283105
 C         -0.7689549006        1.9254504213       -0.8646220451
 C         -1.4496920315        2.7284000230       -1.7720391775
 C         -2.2826019066        2.1589795562       -2.7199278850
 C         -2.4707698949        0.7893678349       -2.7757877913
 C         -1.7964763940       -0.0214307350       -1.8701969183
 C         -0.9583715147        0.5530670281       -0.9292728970
 H         -0.4197241492       -0.0897862915       -0.2515641045
 N         -1.9393905740       -1.4164211195       -1.8874897272
 S         -1.8801574549       -2.2840169646       -0.4604244441
 O         -0.5344135105       -2.3285741966        0.0526558464
 O         -2.4680717321       -3.5619672333       -0.8018833586
 C         -2.9677495813       -1.4053504598        0.6474814230
 C         -2.4687632407       -0.6432495645        1.6833057600
 C         -3.3552793895        0.0655143079        2.4800318006
 C         -4.7168354495       -0.0004255141        2.2318084636
 C         -5.2045053304       -0.7792275326        1.1926381635
 C         -4.3238322646       -1.4851307440        0.3908805394
 H         -4.6629950590       -2.1110914043       -0.4184612461
 H         -6.2646131232       -0.8349567263        1.0051741438
 H         -5.4001121731        0.5555761867        2.8541085686
 H         -2.9640273295        0.6673647546        3.2850272650
 H         -1.4058241794       -0.6018885410        1.8644213332
 H         -2.6381633773       -1.7721513389       -2.5223324674
 H         -3.1202039950        0.3498706920       -3.5170127805
 H         -2.7987574034        2.7928996884       -3.4247264692
 H         -1.3208581570        3.7980674598       -1.7421281701
 H         -0.4587123041        2.5420676381        1.1415617033
 C          0.6780588207        3.8530300858       -0.1110586459
 C         -0.0749533608        5.0842025719        0.2922703133
 C          1.1875663469        4.7104936695        1.0071953096
 H          2.0743708652        5.3031487593        0.8403386386
 H          1.1117536555        4.3124055301        2.0089807244
 H         -0.0534226794        5.9399649895       -0.3656342223
 H         -1.0087940795        4.9519240853        0.8176070745
 H          1.2282832924        3.8692006000       -1.0445426039
