  62
        -98.94364580
 C          1.6710742001       -0.5461827464        0.3151044533
 C          2.9083023748       -1.0697826964        0.7593511807
 C          4.0824783038       -0.7171064441       -0.0496720419
 C          3.9184100241        0.0374346267       -1.1518442977
 C          5.0328750496        0.5111903314       -2.0384150142
 C          5.5584406118        1.8808151200       -1.5862517541
 C          5.8692322768        1.9608356361       -0.0916272619
 H          6.2622242419        2.9605583788        0.1056797134
 H          4.9384996434        1.8641445482        0.4719733339
 C          6.8725280484        0.9108129081        0.4054998835
 H          7.5963487890        1.4005524268        1.0604226758
 H          7.4270198735        0.4986735819       -0.4384023161
 C          6.2486841379       -0.2322768526        1.2084094171
 H          7.0563825943       -0.7893251389        1.6907451613
 H          5.6169170098        0.1784581832        2.0000636973
 C          5.4175643423       -1.2385119301        0.4023289828
 H          5.9997722772       -1.5989773113       -0.4482671567
 H          5.2012402849       -2.0892395322        1.0554149104
 H          4.8035386090        2.6350784673       -1.8194429066
 H          6.4581035966        2.1115258201       -2.1596912533
 H          5.8378597190       -0.2210113541       -2.0246754914
 H          4.6493638901        0.5970581430       -3.0564514954
 O          2.7098733367        0.4982976886       -1.5625700028
 C          1.5560993652        0.2282185932       -0.8398281674
 O          0.5210329829        0.7229473714       -1.3218151846
 H         -2.2050539072       -0.2518258381        0.5103459986
 C         -1.8578311676       -1.1444912147        0.0212198503
 C         -0.5663146474       -1.5954963604        0.2350020731
 C         -0.1545686049       -2.7665765474       -0.3972305367
 C         -1.0130143700       -3.4558826511       -1.2306756325
 C         -2.2983479158       -2.9927333927       -1.4544169081
 C         -2.7201662482       -1.8270927013       -0.8267746134
 N         -3.9950506572       -1.3089473654       -1.0730385949
 S         -4.7944645232       -0.3245115058        0.0049982355
 O         -4.6871947010       -0.8146304007        1.3599404771
 O         -6.1390157571       -0.2385928303       -0.5244580924
 C         -4.0016016513        1.2636217111       -0.1355277779
 C         -3.5891298201        1.7071134859       -1.3756577024
 C         -2.9804952720        2.9478716141       -1.4728530937
 C         -2.7999782611        3.7216179335       -0.3369064430
 C         -3.2271122710        3.2656457109        0.9006208376
 C         -3.8358347723        2.0254406575        1.0042945104
 H         -4.1728154835        1.6249770323        1.9476054108
 H         -3.0833993020        3.8686486258        1.7832604934
 H         -2.3194304320        4.6841882672       -0.4158947743
 H         -2.6405571512        3.3029502681       -2.4323331684
 H         -3.7326778760        1.0781902765       -2.2382689021
 H         -4.6097791797       -1.8760622937       -1.6357875523
 H         -2.9661628006       -3.5248990392       -2.1144814214
 H         -0.6804905795       -4.3622518192       -1.7141995405
 H          0.8522016632       -3.1245035681       -0.2292009426
 C          0.4146883426       -0.8557392215        1.1094885791
 H          0.7357584425       -1.5323412268        1.9152392895
 C         -0.1477535242        0.4075097383        1.7261619138
 C         -1.0019346707        0.3278426869        2.9546871538
 C          0.3895140940        0.8766085310        3.0436156499
 H          0.5169030441        1.9371057669        3.2001088762
 H          1.1500849612        0.2708714950        3.5144783003
 H         -1.8323562591        1.0105897640        3.0498486415
 H         -1.1934479012       -0.6512047442        3.3674008752
 H         -0.3867008156        1.1637453448        0.9861476570
 O          3.0241361741       -1.8008597792        1.7802471145
