  62
        -98.94488086
 C         -1.9369154727        0.5267027953        0.6346801303
 C         -3.0013632218        1.3165071482        0.1364806201
 C         -4.3398198088        0.7261880622        0.2416036263
 C         -4.4914458850       -0.4861012960        0.8053090977
 C         -5.7947424094       -1.2105450644        1.0073683742
 C         -6.2674823365       -1.9983340260       -0.2221730707
 C         -6.7900982443       -1.1459989333       -1.3793131539
 H         -7.2846206385       -1.8237639941       -2.0780019655
 H         -7.5463571796       -0.4544260850       -1.0066650166
 C         -5.7031152797       -0.3670023329       -2.1330436408
 H         -4.7237125191       -0.7912251738       -1.8995969290
 H         -5.8529005194       -0.4816962438       -3.2089782939
 C         -5.6772619663        1.1325096676       -1.8365115616
 H         -6.6042308433        1.5913686607       -2.1873248724
 H         -4.8492833053        1.5778820315       -2.3938098151
 C         -5.4908874801        1.4798099207       -0.3535736242
 H         -5.2657000303        2.5462619648       -0.2763930660
 H         -6.4073281756        1.2747788250        0.1991203051
 H         -7.0719476668       -2.6609709780        0.1052693574
 H         -5.4436664760       -2.6243700960       -0.5729435072
 H         -6.5668294494       -0.5007683362        1.3056549183
 H         -5.6342901787       -1.9148273306        1.8265401753
 O         -3.4442409920       -1.2064870492        1.2881014436
 C         -2.1419965277       -0.7335786971        1.1958950273
 O         -1.2830588991       -1.5142233125        1.6479268090
 O         -2.8393926142        2.4580203712       -0.3716617951
 C         -0.5213883295        1.0704249905        0.5405400773
 C          0.3048824479        0.1568056138       -0.3293975509
 C         -0.0909293414       -0.0296744916       -1.6527901277
 C          0.6016017069       -0.8866068234       -2.4842372553
 C          1.7119236526       -1.5692651673       -2.0171544345
 C          2.1178785065       -1.3888843899       -0.7010787957
 C          1.4190869061       -0.5240453407        0.1327242971
 H          1.7453050272       -0.4212296019        1.1533460249
 N          3.2279883769       -2.0872047734       -0.2001830196
 S          4.3851700255       -1.3163851109        0.7251217149
 O          5.5007042837       -2.2366692114        0.7458994844
 O          3.8442808648       -0.9392124095        2.0051266143
 C          4.8137591454        0.1314437143       -0.2236405277
 C          5.7289047779       -0.0055664279       -1.2495727257
 C          6.0228618183        1.0948203929       -2.0378633298
 C          5.3925628373        2.3058227209       -1.7938698062
 C          4.4761411966        2.4264233547       -0.7608573975
 C          4.1804555280        1.3300912754        0.0342245316
 H          3.4765149680        1.3872078922        0.8476912863
 H          3.9881918537        3.3691043495       -0.5707731259
 H          5.6182997153        3.1617847366       -2.4100788186
 H          6.7384746370        1.0054193678       -2.8392201934
 H          6.2033880655       -0.9620957797       -1.3979407537
 H          3.6617689935       -2.7110851033       -0.8647417740
 H          2.2509693740       -2.2468079281       -2.6618147976
 H          0.2784284413       -1.0249666819       -3.5049389481
 H         -0.9606519195        0.5018539556       -2.0143169380
 H         -0.6191871230        2.0386388276        0.0279521361
 C          0.0555894169        1.3077971442        1.9188217105
 C          1.1131049218        2.3503869828        2.1186708636
 C         -0.2751179742        2.5823243376        2.6337537448
 H         -0.4460365065        2.5456418003        3.6992065310
 H         -0.9005567142        3.2942811155        2.1151810642
 H          1.9006863518        2.1544820756        2.8315384868
 H          1.4249830970        2.9145075483        1.2524666869
 H          0.1091871966        0.4051956176        2.5174140135
