  62
        -98.94356169
 C         -0.9970120470       -1.5089297352        0.5793610304
 C         -1.0125376357       -0.4946506655       -0.4091914889
 C         -1.8757202057        0.6614397673       -0.1204506062
 C         -2.4563972365        0.7685381806        1.0871559389
 C         -3.3765068152        1.8787208630        1.5035770353
 C         -4.8429424994        1.5183004270        1.2263657299
 C         -5.0901208909        0.9859806797       -0.1852752687
 H         -4.5819384031        0.0253015466       -0.2968931579
 H         -6.1614142870        0.7942508876       -0.2769544933
 C         -4.6401719090        1.9308945408       -1.3082212552
 H         -5.4252199615        1.9701735482       -2.0661607148
 H         -4.5186207809        2.9404856086       -0.9146352888
 C         -3.3540473721        1.5050136641       -2.0190106025
 H         -3.2535906210        2.1062466655       -2.9259804088
 H         -3.4367441818        0.4596461895       -2.3266031814
 C         -2.0581460167        1.6738972290       -1.2148170122
 H         -1.2166360496        1.5268149799       -1.8972442854
 H         -2.0023359542        2.6877117253       -0.8153280082
 H         -5.4549966132        2.4060115303        1.3959387772
 H         -5.1517878028        0.7517398437        1.9411281240
 H         -3.1059047718        2.7867145407        0.9683731298
 H         -3.2476804975        2.0470719875        2.5743508396
 O         -2.3022069299       -0.1606783758        2.0663409083
 C         -1.6024091418       -1.3311206897        1.8253924842
 O         -1.5807566102       -2.1227028232        2.7905746128
 O         -0.3555999756       -0.5424116843       -1.4805930946
 C         -0.2262689156       -2.8017758703        0.3808049443
 C          1.1541808941       -2.5106638471       -0.1555776316
 C          1.7397304083       -3.2029989510       -1.2075325995
 C          3.0246523270       -2.8934300176       -1.6195055962
 C          3.7420394419       -1.8818390469       -1.0091533411
 C          3.1594216648       -1.1765862132        0.0395069715
 C          1.8866351973       -1.5082522553        0.4688799302
 H          1.4491931897       -0.9617122436        1.2917102675
 N          3.8546369169       -0.1342133457        0.6766939242
 S          3.0884866353        1.2447142489        1.2015578328
 O          4.1760311900        2.1451633106        1.5294483710
 O          2.1833801950        0.9500395746        2.2863982066
 C          2.1856289146        1.9649661083       -0.1621248773
 C          2.4006058841        1.5888687644       -1.4712555285
 C          1.7383031764        2.2716352612       -2.4803437413
 C          0.8933062387        3.3235879046       -2.1696842560
 C          0.6888053447        3.6915771122       -0.8485673115
 C          1.3354106959        3.0036295016        0.1638043608
 H          1.1996736948        3.2490259820        1.2055165842
 H          0.0312240448        4.5107011724       -0.6046034795
 H          0.3865959952        3.8565502091       -2.9587665677
 H          1.8869557369        1.9754546345       -3.5061767100
 H          3.0573935007        0.7678318263       -1.7053713563
 H          4.7617899112        0.0796616642        0.2883732648
 H          4.7402030879       -1.6344824459       -1.3380719912
 H          3.4694170379       -3.4410297494       -2.4363797331
 H          1.1887605740       -3.9763376370       -1.7164159280
 H         -0.1012145948       -3.2138658894        1.3967531846
 C         -0.9804008244       -3.8512611802       -0.4251690496
 C         -2.4704989548       -3.7912470695       -0.5783570985
 C         -1.5855942115       -3.5389682181       -1.7598367407
 H         -1.5401885268       -4.2916258476       -2.5333025745
 H         -1.4862246979       -2.5286253744       -2.1228863462
 H         -3.0261647589       -4.7161655779       -0.5347840549
 H         -2.9868201846       -2.9523277465       -0.1337977666
 H         -0.5570095028       -4.8430359545       -0.3003477344
