  62
        -98.94825293
 C         -1.1787587022       -1.2084709518       -0.0157255546
 C         -1.9374459220       -0.6649663880        1.0476082175
 C         -2.5767718583        0.6312807896        0.7848130600
 C         -2.3989005590        1.2220405575       -0.4109292844
 C         -3.0272408244        2.5197737668       -0.8276758472
 C         -4.3769820462        2.2870170728       -1.5208948600
 C         -5.3130266309        1.3551206647       -0.7515168317
 H         -4.8790577958        0.3529367399       -0.7278333013
 H         -6.2445376921        1.2892623220       -1.3176545603
 C         -5.6189216521        1.8064682800        0.6834499270
 H         -6.6905024692        1.6990459836        0.8642486845
 H         -5.3751578811        2.8630503723        0.8004439015
 C         -4.9024034038        1.0000128916        1.7683803589
 H         -5.0673010180       -0.0675453221        1.6014835298
 H         -5.3505529333        1.2529057425        2.7330462850
 C         -3.3919265841        1.2395141141        1.8906300352
 H         -3.0504113586        0.7597952356        2.8130883082
 H         -3.1922304595        2.3104251009        1.9727397453
 H         -4.1905755671        1.8489246435       -2.5039120861
 H         -4.8616214644        3.2542172971       -1.6653430953
 H         -3.1601526331        3.1495537391        0.0500345698
 H         -2.3529727323        3.0236856638       -1.5222886673
 O         -1.6522241380        0.6757504305       -1.4037222287
 C         -1.0140543148       -0.5467094803       -1.2316262261
 O         -0.3488716580       -0.9199766094       -2.2143959264
 H          1.0221892766       -0.7329672292        1.4372824779
 C          1.6221379266       -1.3598496622        0.7929775143
 C          1.0140808462       -2.3651558632        0.0492882144
 C          1.8093311228       -3.1686723471       -0.7571410357
 C          3.1756793293       -2.9583923567       -0.8248288608
 C          3.7744133344       -1.9497941729       -0.0936979952
 C          2.9894731240       -1.1463866379        0.7265429035
 N          3.5768524490       -0.1341812876        1.5073308843
 S          2.9097360917        1.3969781203        1.5349769285
 O          3.9437410949        2.2240946204        2.1190214857
 O          1.6432963693        1.3832167145        2.2212965627
 C          2.6903262647        1.8287553277       -0.1789164875
 C          1.4322067023        1.7648260408       -0.7384149096
 C          1.2815573749        2.0423556227       -2.0874867416
 C          2.3904559278        2.3761109716       -2.8488014075
 C          3.6493370750        2.4444516921       -2.2703584343
 C          3.8048930911        2.1646289766       -0.9230417421
 H          4.7635760061        2.2176722199       -0.4330011699
 H          4.5073192087        2.7099450128       -2.8667870941
 H          2.2693781146        2.5846472045       -3.9000532551
 H          0.3028373129        1.9720771280       -2.5348806318
 H          0.5950325477        1.4985295589       -0.1116502538
 H          4.5811804995       -0.0757168600        1.4151278600
 H          4.8398972400       -1.7863793870       -0.1478202355
 H          3.7813684909       -3.5863558079       -1.4601394761
 H          1.3598035004       -3.9581727376       -1.3360330710
 C         -0.4790145425       -2.5400259469        0.1828490409
 H         -0.6922573053       -2.8284526232        1.2233889924
 C         -1.0592304701       -3.5894537130       -0.7419053256
 C         -1.0274840350       -5.0368319143       -0.3544507738
 C         -2.3239769902       -4.2858339292       -0.3412435556
 H         -3.0568359867       -4.5040281648       -1.1035876178
 H         -2.7543949960       -4.0213836223        0.6139221241
 H         -0.5799803587       -5.2901505421        0.5947545376
 H         -0.8728938504       -5.7748601475       -1.1269196704
 H         -0.9402294503       -3.3344257576       -1.7888160360
 O         -2.0727786166       -1.2369482590        2.1637804835
