  62
        -98.93948388
 C          2.5677464165       -0.8729348052        0.3657183652
 C          2.7116429997        0.4419370194       -0.1387556574
 C          4.0324504166        0.7678480975       -0.6914740704
 C          4.9962925298       -0.1703334969       -0.7224530827
 C          6.3847839483        0.0042019799       -1.2755543746
 C          7.3743548943        0.6383168734       -0.2883532632
 C          7.1689114388        2.1313872591       -0.0295088203
 H          8.0531491432        2.4883963648        0.5022384757
 H          7.1257441991        2.6612642644       -0.9815643823
 C          5.9238436010        2.4645182308        0.8043065468
 H          5.5745612744        1.5633716456        1.3135523716
 H          6.1875027022        3.1879762083        1.5790977915
 C          4.7656398410        3.0599807521        0.0036527004
 H          5.0617860426        4.0289814097       -0.4042136491
 H          3.9263176121        3.2230958579        0.6842970085
 C          4.2742110713        2.1745603086       -1.1491209386
 H          3.3223003812        2.5735741729       -1.5082397107
 H          4.9920681745        2.1911065006       -1.9689060991
 H          7.3213965785        0.0936180700        0.6571198558
 H          8.3774777190        0.4971053536       -0.6973019864
 H          6.7453520856       -0.9946989047       -1.5306078081
 H          6.3439441974        0.6016598381       -2.1867473728
 O          4.8054291064       -1.4338191441       -0.2561770025
 C          3.5986381674       -1.8102069915        0.3109927783
 O          3.5659304572       -2.9906831765        0.7156520817
 O          1.7904609860        1.2989054641       -0.1286783659
 C          1.2485448679       -1.3064567559        0.9787585959
 C          0.1415685680       -1.1688500924       -0.0389192851
 C          0.3115658463       -1.7529427024       -1.2916241119
 C         -0.6737251774       -1.6600460561       -2.2550818552
 C         -1.8516251787       -0.9821128549       -1.9932614919
 C         -2.0360534919       -0.4042859003       -0.7454625638
 C         -1.0473000993       -0.5094309031        0.2267313037
 H         -1.2069197857       -0.0559040225        1.1925589311
 N         -3.2221919009        0.3014899037       -0.4742238882
 S         -4.6755326538       -0.3966173598       -0.9780038061
 O         -4.7083532393       -1.7934898951       -0.6047935901
 O         -4.8609722848       -0.1160145364       -2.3795397874
 C         -5.8503855760        0.5338056874       -0.0135917627
 C         -6.2701220699        0.0331164937        1.2044102138
 C         -7.1646162397        0.7736648243        1.9609939691
 C         -7.6193258412        1.9965554442        1.4907287793
 C         -7.1888592417        2.4857371608        0.2663312159
 C         -6.2953129833        1.7500288115       -0.4957717000
 H         -5.9404787030        2.0856207411       -1.4561857402
 H         -7.5466319681        3.4357140584       -0.0966450531
 H         -8.3160252307        2.5704654898        2.0811198141
 H         -7.5035024668        0.3948441523        2.9117940512
 H         -5.8990885229       -0.9268700582        1.5261778464
 H         -3.2763397343        0.5972952132        0.4910455076
 H         -2.6287081024       -0.9007477224       -2.7360923721
 H         -0.5249826782       -2.1177194406       -3.2219875395
 H          1.2327752032       -2.2812065008       -1.4998249062
 H          1.3589904092       -2.3751989999        1.2142873962
 C          0.9998105522       -0.5467149760        2.2650480582
 C          0.1664384981       -1.1544150375        3.3521868770
 C          1.6497962669       -1.0297512052        3.5252974683
 H          2.0292770331       -0.2985191087        4.2231660799
 H          2.2522176459       -1.9243168378        3.4601736155
 H         -0.4706457032       -0.5087003412        3.9378308228
 H         -0.2421337399       -2.1384205364        3.1775357202
 H          0.9437909125        0.5248482478        2.1109349529
