  62
        -98.93869939
 C          1.8316199757        0.7332920427        0.3437743769
 C          2.4797797921        0.2090282921       -0.7985185760
 C          3.5868768816       -0.7320420544       -0.5446156956
 C          3.8809225274       -1.0724791656        0.7219966621
 C          4.9979550054       -1.9607808102        1.1951228569
 C          6.2397102843       -1.1256321908        1.5511365556
 C          7.1811262360       -0.8397574961        0.3817215633
 H          7.9373515748       -0.1366855343        0.7384491869
 H          7.6967368300       -1.7612337500        0.1031273400
 C          6.5167810123       -0.2548283264       -0.8675009682
 H          5.7956516072        0.5112747351       -0.5770012106
 H          7.2915041543        0.2381249183       -1.4579876533
 C          5.8294664428       -1.3164019777       -1.7393805420
 H          6.1487468987       -2.3059942004       -1.4125848593
 H          6.1665548268       -1.2087098602       -2.7723964630
 C          4.2945653168       -1.2520177574       -1.7658781848
 H          3.9711287898       -0.5894658410       -2.5749320901
 H          3.8989933800       -2.2456447404       -2.0021796591
 H          5.8959108646       -0.1836300969        1.9861375334
 H          6.8072767446       -1.6524608667        2.3209464229
 H          4.6409359039       -2.4565473527        2.1003722185
 H          5.2315930305       -2.7165240394        0.4511029851
 O          3.1919690464       -0.5858449799        1.7915071808
 C          2.1618958002        0.3226774827        1.6343734514
 O          1.6175942195        0.6767613576        2.7009285856
 H         -0.4898710791       -0.5338482201        0.8344479552
 C         -0.9461834852       -0.1034254263       -0.0489853120
 C         -0.4501014481        1.0962456107       -0.5464708813
 C         -1.0528181484        1.6475071215       -1.6684066951
 C         -2.1035982359        0.9945364563       -2.2912157553
 C         -2.5827279035       -0.2068527498       -1.8043068111
 C         -1.9995284962       -0.7565594669       -0.6686546478
 N         -2.4991482013       -1.9632620808       -0.1484482337
 S         -4.1614632287       -2.1086324301       -0.0054172166
 O         -4.3707034913       -3.0190710289        1.0987079677
 O         -4.7212999824       -2.5170655755       -1.2697289613
 C         -4.7410166378       -0.4724560347        0.4091939585
 C         -5.6141239200        0.1842665288       -0.4337631153
 C         -6.0219735287        1.4680826336       -0.1085178053
 C         -5.5482468514        2.0712772671        1.0459315167
 C         -4.6745196102        1.3966356016        1.8851830274
 C         -4.2652613507        0.1122612907        1.5662342893
 H         -3.5890127112       -0.4385287613        2.2008236434
 H         -4.3061781657        1.8663326991        2.7832185460
 H         -5.8608447002        3.0728569739        1.2956514277
 H         -6.7029179096        1.9941655788       -0.7578169350
 H         -5.9540047133       -0.3204919308       -1.3232991737
 H         -2.0316927382       -2.2709368310        0.6913925037
 H         -3.3905972324       -0.7332864553       -2.2861018740
 H         -2.5544025572        1.4272866370       -3.1709627266
 H         -0.6935928204        2.5827146230       -2.0639675426
 C          0.7021785834        1.7369210192        0.1892133836
 H          0.3621857332        1.9649608837        1.2099845926
 C          1.2063609461        3.0120327965       -0.4518818681
 C          0.5077750092        4.3108661072       -0.1873975095
 C          1.8552124726        4.0487303367        0.4134341288
 H          2.7088064612        4.5838247379        0.0250833106
 H          1.9145320392        3.8454013120        1.4731147538
 H          0.4371420264        5.0312685911       -0.9881052343
 H         -0.3502302224        4.2919421701        0.4671871690
 H          1.6298231234        2.8465425924       -1.4354193933
 O          2.1612141978        0.5152498127       -1.9767022373
