  62
        -98.93804937
 C          2.2450308828        1.0332663909       -0.4714505433
 C          3.6374988024        1.0781057934       -0.1933882851
 C          4.4037269944       -0.1348560085       -0.4959561512
 C          3.7731774175       -1.2125595078       -0.9955421908
 C          4.4152802082       -2.5186758914       -1.3770802668
 C          4.6077072595       -3.4864306934       -0.2015461890
 C          5.7115631167       -3.1005229000        0.7838314630
 H          5.8842968189       -3.9662945866        1.4261986610
 H          6.6356904096       -2.9114231917        0.2367381228
 C          5.3769313704       -1.8903264876        1.6671126659
 H          4.2995390975       -1.7087275162        1.6437542592
 H          5.6393207381       -2.1126605973        2.7039678611
 C          6.1057645243       -0.6027804497        1.2818917352
 H          5.7661814003        0.1948351519        1.9475487979
 H          7.1800030923       -0.7314601237        1.4314739777
 C          5.8652482767       -0.1476538883       -0.1634766391
 H          6.4067084331       -0.7920642751       -0.8557328335
 H          6.2400211451        0.8735032910       -0.2675838860
 H          3.6589025421       -3.5809415764        0.3321879160
 H          4.8509722148       -4.4651026952       -0.6217467596
 H          5.3770200354       -2.3282712902       -1.8543373427
 H          3.7517605157       -2.9900422535       -2.1053235795
 O          2.4371237203       -1.2252257943       -1.2357482784
 C          1.6336946656       -0.1220160089       -0.9637223480
 O          0.4310947931       -0.3165020969       -1.2212922881
 O          4.2151296968        2.0905831865        0.2835652292
 C          1.4353650167        2.2717936431       -0.1231613892
 C          0.2941407497        1.8841012544        0.7807312837
 C          0.5298718488        1.6935106039        2.1388704007
 C         -0.4830378541        1.2682314963        2.9782985747
 C         -1.7467835850        1.0101667794        2.4772225587
 C         -1.9861419949        1.1838075623        1.1210307048
 C         -0.9757192324        1.6387269374        0.2842962786
 H         -1.1669230727        1.7583314766       -0.7706838649
 N         -3.2638304472        0.9046130656        0.5995516799
 S         -4.0060297933       -0.5098579812        1.1531149000
 O         -4.7289691425       -0.1933248966        2.3615845837
 O         -3.0438929870       -1.5826445816        1.2650264803
 C         -5.1545229269       -0.8391946686       -0.1690591878
 C         -4.6822657189       -1.4682768633       -1.3060477928
 C         -5.5600385894       -1.7100069737       -2.3508451052
 C         -6.8866187078       -1.3190827410       -2.2423754774
 C         -7.3446822670       -0.6882093049       -1.0956439527
 C         -6.4723021680       -0.4431869846       -0.0466764416
 H         -6.7820233183        0.0384081358        0.8660724959
 H         -8.3768060260       -0.3877543278       -1.0151166888
 H         -7.5667510914       -1.5102481322       -3.0573209808
 H         -5.2055890553       -2.2012220278       -3.2428608718
 H         -3.6446674117       -1.7628663767       -1.3455935258
 H         -3.2616506929        0.9306612065       -0.4115076615
 H         -2.5423976253        0.6537009747        3.1122467988
 H         -0.2868272259        1.1258739460        4.0306337513
 H          1.5234141006        1.8699459562        2.5280733709
 H          2.1343363791        2.8939879598        0.4585721192
 C          0.9956280752        3.1151770775       -1.3103434862
 C          1.9340243133        3.3556788465       -2.4543030645
 C          0.6875777880        2.5519114758       -2.6637988659
 H         -0.1192473360        2.9994998545       -3.2260832287
 H          0.7775569319        1.4867310745       -2.8051480175
 H          1.9892687839        4.3461803575       -2.8798330900
 H          2.8792343065        2.8326502395       -2.4352131180
 H          0.3940538762        3.9617890448       -0.9928449013
