  62
        -98.94144706
 C         -2.4376782648       -1.0439988165       -0.5401793407
 C         -3.4623824170       -0.5306015308        0.2991410255
 C         -3.9659750184        0.8065054271       -0.0268350702
 C         -3.4596609018        1.4675162789       -1.0831213741
 C         -3.8741117426        2.8336719896       -1.5574520654
 C         -3.1844271494        3.9849770289       -0.8126026768
 C         -3.6694391968        4.2152645506        0.6193045752
 H         -3.2706902018        5.1793607211        0.9409971046
 H         -4.7570680694        4.2932467524        0.6256124211
 C         -3.2227071414        3.1402414341        1.6202738988
 H         -2.8484158020        3.6204847976        2.5274135566
 H         -2.3897131921        2.5711202328        1.1987773102
 C         -4.3252909387        2.1694547244        2.0443842164
 H         -3.8867910888        1.4299414035        2.7194060629
 H         -5.0980487629        2.7116228247        2.5938145900
 C         -4.9882923848        1.4175502650        0.8830292076
 H         -5.5896798645        0.6059435850        1.2996250372
 H         -5.6413879588        2.0877830409        0.3247142179
 H         -2.1067645631        3.8025396441       -0.8064212717
 H         -3.3638566856        4.8977509667       -1.3854589274
 H         -4.9559070571        2.9392945067       -1.4716957405
 H         -3.5999004191        2.8929671742       -2.6128769948
 O         -2.4932279516        0.9373117475       -1.8753903846
 C         -1.9392164792       -0.3081660142       -1.6152112619
 O         -1.0393216520       -0.6213244245       -2.4220361186
 O         -3.9403174030       -1.1700461212        1.2736638283
 C         -1.8896062963       -2.4155536538       -0.1774202120
 C         -0.6082286912       -2.2638141169        0.6075756970
 C         -0.5463441562       -2.6105187978        1.9520746119
 C          0.6177314719       -2.4209526962        2.6769810791
 C          1.7412231839       -1.8777584974        2.0795680174
 C          1.6850726290       -1.5209116836        0.7390498549
 C          0.5234360066       -1.7259642415        0.0107183881
 H          0.4841368187       -1.4295148625       -1.0273231904
 N          2.8220789893       -0.9429457232        0.1193310257
 S          3.1749368476        0.6312551567        0.6312897352
 O          3.2905110929        0.6318115911        2.0670270460
 O          2.2236308428        1.5679038313        0.0674193503
 C          4.7787413300        0.8642184964       -0.1081751988
 C          5.8848522280        0.3482858597        0.5389976247
 C          7.1313523927        0.4905263002       -0.0489688293
 C          7.2498104701        1.1402306275       -1.2686834341
 C          6.1301918710        1.6530057663       -1.9059552255
 C          4.8802353147        1.5131077279       -1.3232158721
 H          3.9837281369        1.9025586043       -1.7792885521
 H          6.2245108578        2.1595663052       -2.8530740897
 H          8.2208268675        1.2498952956       -1.7251637848
 H          8.0046413780        0.0946467838        0.4437723188
 H          5.7447627599       -0.1419458854        1.4879357103
 H          2.6889578545       -0.9009045903       -0.8844751541
 H          2.6446477825       -1.7019098040        2.6392524414
 H          0.6490655748       -2.6941872297        3.7208923410
 H         -1.4267485279       -3.0113112054        2.4334084715
 H         -2.6411984538       -2.8549361711        0.4921996573
 C         -1.7112663745       -3.3361300604       -1.3677077321
 C         -1.6624867940       -4.8160520785       -1.1387541054
 C         -2.8557323901       -4.1991167167       -1.8030979602
 H         -3.0030287382       -4.3619082043       -2.8601464744
 H         -3.7752382868       -4.1306771010       -1.2402340421
 H         -0.9880663812       -5.4071930952       -1.7387534471
 H         -1.7736408031       -5.1681725875       -0.1244534953
 H         -1.0797708829       -2.9241034921       -2.1436360281
