  62
        -98.94018959
 C         -2.4860569894       -1.0021990619        0.3443725403
 C         -2.3926078999        0.1506230183        1.1674137702
 C         -3.3608047504        1.2197404078        0.9018242401
 C         -4.2841962603        1.0567140173       -0.0628865499
 C         -5.3738103107        2.0299896268       -0.4236560400
 C         -4.9331081012        3.1392426969       -1.3879178101
 C         -4.0220103617        4.2048877573       -0.7779232402
 H         -3.9673967121        5.0283803673       -1.4925001603
 H         -4.4776091619        4.5934968072        0.1332631798
 C         -2.5970989415        3.7194238980       -0.4759084701
 H         -2.4017040811        2.7922604280       -1.0203083101
 H         -1.8747855118        4.4557911983       -0.8355005402
 C         -2.3042515214        3.4887995583        1.0069081099
 H         -2.3574820918        4.4389249683        1.5435429398
 H         -1.2828363612        3.1077749388        1.0975668099
 C         -3.2472857509        2.4894508179        1.6899297800
 H         -2.8295898708        2.2374573182        2.6678973700
 H         -4.2303257511        2.9380972675        1.8333130899
 H         -4.4334619910        2.6800878570       -2.2438817700
 H         -5.8374803715        3.6306774464       -1.7536925101
 H         -6.1610305305        1.4470706064       -0.9064011199
 H         -5.7785652409        2.4762109667        0.4851923200
 O         -4.3489191998       -0.0654755828       -0.8238866698
 C         -3.4470057593       -1.1091645924       -0.6615401497
 O         -3.6321564089       -2.0491402425       -1.4576838896
 O         -1.5504747599        0.2715898787        2.0984869302
 C         -1.4882324189       -2.1195866114        0.6018387704
 C         -0.3936285489       -2.1027639510       -0.4386752096
 C         -0.5744131486       -2.6341918012       -1.7114049395
 C          0.4507213713       -2.5865186008       -2.6384391495
 C          1.6687724011       -2.0139561202       -2.3187854896
 C          1.8614081608       -1.4825053900       -1.0483291596
 C          0.8309857509       -1.5303306704       -0.1202475196
 H          0.9829216507       -1.0982843202        0.8580778003
 N          3.1079584506       -0.9410117094       -0.6888124597
 S          3.1763236000        0.3637494307        0.3796197602
 O          2.9683501302       -0.1200664193        1.7205776402
 O          2.3055785895        1.4260352603       -0.0737190599
 C          4.8864220398        0.8279502514        0.1774140901
 C          5.2178857393        1.9110988815       -0.6137746900
 C          6.5555096692        2.2355571521       -0.7798810000
 C          7.5332694795        1.4735204326       -0.1585771799
 C          7.1850649900        0.3893231425        0.6336070802
 C          5.8499685302        0.0608867319        0.8052228302
 H          5.5305718105       -0.7656661481        1.4181585003
 H          7.9476133603       -0.1993648171        1.1174647002
 H          8.5731073894        1.7277883831       -0.2901370200
 H          6.8289405388        3.0798551622       -1.3919727601
 H          4.4234382391        2.4786405411       -1.0713054300
 H          3.7053641805       -0.7826850892       -1.4894114997
 H          2.4666668911       -1.9800745900       -3.0451908496
 H          0.2971654215       -2.9969948910       -3.6251186095
 H         -1.5308516384       -3.0551578417       -1.9766385695
 H         -1.0258017590       -1.8670908111        1.5664739004
 C         -2.1390202182       -3.4828607317        0.7254234806
 C         -1.3743640177       -4.5903013813        1.3839394007
 C         -2.5512062980       -3.9754253917        2.0785909506
 H         -3.4615074678       -4.5499700321        2.1615280207
 H         -2.3647425483       -3.3285953215        2.9238173105
 H         -1.4736913273       -5.5901472613        0.9906635508
 H         -0.3880644879       -4.3587213308        1.7577902406
 H         -2.7798908881       -3.7359489920       -0.1086785394
