  62
        -98.93466952
 C         -2.1644982340       -0.8377746522        0.1308963124
 C         -3.0330513878       -0.2245482323        1.0657868935
 C         -3.8861585437        0.8700507940        0.5698514762
 C         -3.7674584968        1.2668291615       -0.7107716663
 C         -4.4621427168        2.3681766835       -1.4843425741
 C         -5.7000894754        3.0585616057       -0.9182799733
 C         -6.9430378580        2.1726316937       -0.8348961617
 H         -7.7266107425        2.7298034449       -0.3169216531
 H         -7.2936524433        1.9714850097       -1.8503028262
 C         -6.7489845375        0.8265275472       -0.1413800975
 H         -6.0291523422        0.2260953181       -0.7015568161
 H         -7.7035111594        0.2941607664       -0.1711243838
 C         -6.3051949047        0.9007546937        1.3181796676
 H         -7.0013256533        1.5237096685        1.8831504400
 H         -6.3535235209       -0.1112545237        1.7297700111
 C         -4.8784382591        1.4268896550        1.5498914501
 H         -4.8531673256        2.5140442318        1.5491233811
 H         -4.5514309642        1.0930097979        2.5392193480
 H         -5.4768444451        3.4970944235        0.0499362865
 H         -5.9308514633        3.8865012623       -1.5941008705
 H         -4.7073715375        1.9373968344       -2.4603735877
 H         -3.6949481136        3.1283262462       -1.6688060995
 O         -2.8644326450        0.6918205832       -1.5571763957
 C         -2.0509166278       -0.3661556249       -1.1765171745
 O         -1.2942407532       -0.7672143063       -2.0784417805
 O         -3.0873797666       -0.5693711236        2.2775604007
 C         -1.2921665917       -1.9796227067        0.6184623767
 C          0.1390208302       -1.7682027926        0.1905706250
 C          0.8761086525       -2.6980705282       -0.5293908690
 C          2.1908511796       -2.4346323536       -0.8735443067
 C          2.7965215308       -1.2458609899       -0.5132401622
 C          2.0697956337       -0.3083674746        0.2096692848
 C          0.7578484992       -0.5802099112        0.5628853487
 H          0.1919329918        0.1514886156        1.1282791308
 N          2.6721159481        0.9126084963        0.5645802420
 S          4.1464304220        0.8603772651        1.3670440048
 O          4.2756624020       -0.3432146225        2.1559162944
 O          4.2280506155        2.1121684135        2.0881546674
 C          5.3526297272        0.8651205758        0.0579333832
 C          6.2969690096       -0.1403503161       -0.0110204936
 C          7.2323244802       -0.1118016488       -1.0337670702
 C          7.2072475177        0.9165831712       -1.9632836660
 C          6.2538661024        1.9204476371       -1.8781342836
 C          5.3167051262        1.8984901051       -0.8576414842
 H          4.5618059093        2.6601239430       -0.7545537112
 H          6.2372051015        2.7182786431       -2.6030904350
 H          7.9349451393        0.9363090890       -2.7591045499
 H          7.9744155785       -0.8909394698       -1.1016184454
 H          6.2734454220       -0.9226194591        0.7307630168
 H          2.0437381558        1.5556728721        1.0240604549
 H          3.8168769263       -1.0347677646       -0.7884701131
 H          2.7497209218       -3.1645234070       -1.4390792111
 H          0.4171588548       -3.6221680669       -0.8393704041
 H         -1.3253536434       -1.8950168010        1.7185075039
 C         -1.8282712766       -3.3626043782        0.2791792119
 C         -3.2906802462       -3.5885131704        0.0411209650
 C         -2.3190073304       -3.7175229769       -1.0913599181
 H         -2.1062531583       -4.7060805503       -1.4713812495
 H         -2.2963343052       -2.9454214623       -1.8440501637
 H         -3.7422839237       -4.4845005397        0.4399922629
 H         -3.9411875331       -2.7260695146        0.0618363710
 H         -1.3085064942       -4.1425208090        0.8274062091
