  62
        -98.94489167
 C         -1.8453469114       -1.2410619550       -0.0322256984
 C         -3.0942523307       -0.9549082250        0.5693447638
 C         -3.9049096287        0.0816580807       -0.0837858334
 C         -3.4304563353        0.6893617652       -1.1866908256
 C         -4.1233657758        1.8029590235       -1.9163353092
 C         -3.6971516685        3.1746008810       -1.3740557433
 C         -3.7658859316        3.2866589076        0.1491556791
 H         -3.0269362605        2.6138093472        0.5913027905
 H         -3.4703584424        4.3042324730        0.4145043986
 C         -5.1467071230        2.9818770045        0.7467790065
 H         -5.3800457252        3.7425963775        1.4947141845
 H         -5.9090594463        3.0473367923       -0.0303059151
 C         -5.2494056869        1.6241893398        1.4442546844
 H         -4.4323867723        1.5183338109        2.1628471863
 H         -6.1850681215        1.6023512196        2.0092184987
 C         -5.2432323278        0.3985043430        0.5220860982
 H         -5.9991201755        0.5206793972       -0.2563990303
 H         -5.5110935459       -0.4722878359        1.1278024643
 H         -2.6674749744        3.3671784217       -1.6852615848
 H         -4.3347286722        3.9374665511       -1.8243891645
 H         -5.2001500239        1.6807276301       -1.8163935877
 H         -3.8562440357        1.7416007440       -2.9726303844
 O         -2.2280313232        0.3873574526       -1.7388551249
 C         -1.4057507256       -0.5874757632       -1.1842873062
 O         -0.3353531587       -0.7579654397       -1.7941852697
 O         -3.5112889848       -1.5389698092        1.6064527203
 C         -0.9758636187       -2.3192262636        0.5823769286
 C          0.4045761931       -1.8283150821        0.9485772092
 C          1.4744982743       -2.7081847024        1.0802007708
 C          2.7312031986       -2.2470882219        1.4298270518
 C          2.9597625216       -0.8981140221        1.6310082152
 C          1.9030054114       -0.0093547404        1.4848567916
 C          0.6350916020       -0.4794540151        1.1749228414
 H         -0.1820745582        0.2250674226        1.0821253617
 N          2.1356703004        1.3693573399        1.6221379990
 S          3.5048744223        1.9924823503        0.8816794172
 O          4.6169390366        1.9080383569        1.7973869448
 O          3.1375778599        3.3315957508        0.4735773181
 C          3.8354838417        0.9645845607       -0.5412523915
 C          2.8094452376        0.6695252850       -1.4160240609
 C          3.0688162877       -0.1492748623       -2.5028090847
 C          4.3470548219       -0.6455871263       -2.7052279987
 C          5.3715477244       -0.3277482838       -1.8266278074
 C          5.1146377042        0.4799171189       -0.7308436188
 H          5.8761841997        0.7373323223       -0.0125678831
 H          6.3655237638       -0.7133972067       -1.9866086344
 H          4.5427364525       -1.2857122864       -3.5509991006
 H          2.2564276761       -0.4044364523       -3.1642056336
 H          1.8143443710        1.0492891615       -1.2475574634
 H          1.3289649389        1.9405631565        1.4175697331
 H          3.9340377045       -0.5181260963        1.8933342328
 H          3.5468155851       -2.9451797876        1.5368846512
 H          1.3199789917       -3.7604607424        0.9068435737
 H         -1.4905302922       -2.6131288021        1.5102711367
 C         -0.9226761630       -3.5233668182       -0.3414513458
 C         -0.9483468360       -4.9174661628        0.2082021154
 C         -2.1508558988       -4.3681084153       -0.4963460262
 H         -2.3985234038       -4.7463909467       -1.4767574436
 H         -3.0126628358       -4.0986960110        0.0971175652
 H         -0.3676624091       -5.6785448552       -0.2910077171
 H         -1.0064142514       -5.0352175302        1.2799320581
 H         -0.3313469859       -3.3344487967       -1.2303986906
