  62
        -98.94488403
 C          1.8665547628       -0.3992847096       -0.0386333441
 C          2.9286565008       -0.4873169548       -0.9784891449
 C          4.0901466547        0.3773983125       -0.7405335038
 C          4.0828146293        1.2063286335        0.3188262355
 C          5.2180208167        2.1038029346        0.7155024416
 C          6.1682106361        1.3984489757        1.6935324078
 C          6.5977957839        0.0031260631        1.2401147390
 H          7.2889918070       -0.3842209703        1.9917822884
 H          5.7256250117       -0.6545521908        1.2363082637
 C          7.2681439440       -0.0378305483       -0.1402744091
 H          7.6047715679        0.9614836748       -0.4186948311
 H          8.1544106824       -0.6730588023       -0.0805039823
 C          6.3882629773       -0.6048625066       -1.2558996812
 H          7.0217267223       -0.7902312146       -2.1274099992
 H          5.9737567787       -1.5663167760       -0.9425800550
 C          5.2315654753        0.2922425899       -1.7142482041
 H          5.6101839570        1.2886932820       -1.9512954933
 H          4.8147311184       -0.1428978098       -2.6272164111
 H          7.0504251913        2.0264195287        1.8305138971
 H          5.6647259210        1.3049100193        2.6585811037
 H          5.7601980068        2.4102614039       -0.1770463818
 H          4.8039181622        2.9899175124        1.1997118390
 O          3.0422392122        1.2829557997        1.1837082361
 C          1.9142232464        0.4878627926        1.0364579000
 O          1.0579908580        0.6822636483        1.9236555007
 O          2.9051836597       -1.2634308054       -1.9703428972
 C          0.6745391946       -1.3111580278       -0.2791668017
 C         -0.4665433356       -0.5655427955       -0.9285189253
 C         -0.8774350374       -0.8742346812       -2.2197297572
 C         -1.9407367710       -0.2055899124       -2.8018300891
 C         -2.6164279846        0.7813721467       -2.1073914074
 C         -2.2078758121        1.1008004853       -0.8189105014
 C         -1.1460038645        0.4265464878       -0.2354246095
 H         -0.8279188836        0.6877427549        0.7628682713
 N         -2.9027201851        2.0942835698       -0.0966590076
 S         -4.5363761295        1.7889923917        0.1309511330
 O         -5.2511159816        2.1128073931       -1.0782731266
 O         -4.9159040047        2.5335864026        1.3104808758
 C         -4.6147067216        0.0332771759        0.4347997176
 C         -4.1495052350       -0.4360005191        1.6470706804
 C         -4.1262954181       -1.8023671780        1.8722627316
 C         -4.5568275408       -2.6720329686        0.8819780911
 C         -5.0210390415       -2.1848219872       -0.3296508247
 C         -5.0496885930       -0.8187236763       -0.5596922247
 H         -5.4037789640       -0.3980591179       -1.4862771045
 H         -5.3556962094       -2.8640008133       -1.0969279536
 H         -4.5306357167       -3.7360927312        1.0568019296
 H         -3.7681235345       -2.1818876820        2.8160050329
 H         -3.8237436133        0.2697391162        2.3948081789
 H         -2.4645636752        2.3078158074        0.7885681521
 H         -3.4516918133        1.3093128795       -2.5385883370
 H         -2.2471283993       -0.4557861164       -3.8059422185
 H         -0.3485170806       -1.6372927221       -2.7717368832
 H          1.0323900796       -2.0609266486       -0.9972064737
 C          0.1991785898       -2.0297489357        0.9692076598
 C         -0.6442301942       -3.2587952222        0.8185659267
 C          0.7682648784       -3.3737320086        1.3061884197
 H          0.9410100257       -3.6131968435        2.3447696388
 H          1.5085295392       -3.7860846268        0.6360321885
 H         -1.4467866237       -3.4197546312        1.5209038055
 H         -0.8631428943       -3.5929052360       -0.1839768732
 H         -0.0214124829       -1.3641032276        1.7930634125
