  62
        -98.94789919
 C         -0.9351117999       -1.6512708684        0.4684666192
 C         -1.6946629043       -1.3199962824       -0.6803232676
 C         -2.8085104160       -0.3840494845       -0.4635510145
 C         -3.0493694812        0.0822654755        0.7747744190
 C         -4.1628735022        1.0196921513        1.1425401222
 C         -3.7227701881        2.4881264675        1.0982340485
 C         -3.0149863508        2.8890765399       -0.1960623725
 H         -2.8198577922        3.9629822678       -0.1406665584
 H         -2.0407839791        2.3986585068       -0.2556881006
 C         -3.8011029342        2.5814919811       -1.4776971024
 H         -4.8592254394        2.4483071043       -1.2465491288
 H         -3.7191525505        3.4407773600       -2.1467295966
 C         -3.2867550965        1.3664473447       -2.2533492014
 H         -3.7093689334        1.4015347499       -3.2615312615
 H         -2.1994853827        1.4378255597       -2.3485699171
 C         -3.6351781129       -0.0048403640       -1.6588283305
 H         -4.7014750848       -0.0440883489       -1.4231011507
 H         -3.4234118923       -0.7621277531       -2.4196551934
 H         -3.0425337612        2.6749761421        1.9326656595
 H         -4.6072089867        3.1136149052        1.2366687792
 H         -4.9969329024        0.8613823666        0.4613845696
 H         -4.4855947688        0.7796661051        2.1576914955
 O         -2.2894218190       -0.2474825057        1.8508947385
 C         -1.2088256704       -1.1082433570        1.7224172901
 O         -0.5861481822       -1.3105872696        2.7845545538
 H          0.7182747068       -0.0585305344       -0.3310613436
 C          1.4175626046       -0.7304006326       -0.8015395183
 C          1.2949668329       -2.0950490421       -0.5886541970
 C          2.1893491524       -2.9467581952       -1.2280112769
 C          3.1671362319       -2.4350516175       -2.0628146757
 C          3.2795817683       -1.0732135114       -2.2773799021
 C          2.3878609511       -0.2134566601       -1.6453485576
 N          2.4515730787        1.1659498607       -1.8543782246
 S          1.6453870708        2.2775855430       -0.9227183698
 O          0.2197622882        2.1417659008       -1.0803811626
 O          2.2102396435        3.5456565118       -1.3338028368
 C          2.1217571519        1.9370979684        0.7615623466
 C          3.4662289432        1.9526455146        1.0765048378
 C          3.8530395628        1.6721289756        2.3766145114
 C          2.8944481037        1.3773284614        3.3345913038
 C          1.5479285375        1.3729974734        3.0059793612
 C          1.1573958185        1.6592972811        1.7079963951
 H          0.1174527906        1.6560205513        1.4171641181
 H          0.7983896860        1.1257945105        3.7409030860
 H          3.1951640118        1.1482948648        4.3447227194
 H          4.8987326951        1.6780186607        2.6389051045
 H          4.1837123108        2.1893631783        0.3080443750
 H          3.2528108212        1.5246633431       -2.3474090389
 H          4.0379340282       -0.6775179936       -2.9348625549
 H          3.8532142894       -3.1071843101       -2.5554156804
 H          2.1154245983       -4.0112012311       -1.0753225630
 C          0.2375705019       -2.6060913148        0.3621335420
 H          0.6848635449       -2.6478101545        1.3673533458
 C         -0.2515056317       -3.9942178568       -0.0080045744
 C          0.3910718318       -5.2142021889        0.5786594955
 C         -0.9782706953       -4.8012271055        1.0245484739
 H         -1.8270936261       -5.3922907574        0.7151132588
 H         -1.0868746696       -4.3623357474        2.0060723611
 H          0.4821064135       -6.0955037967       -0.0384294186
 H          1.2079084351       -5.0693223966        1.2696462262
 H         -0.6145682224       -4.0457590867       -1.0280750139
 O         -1.4665195606       -1.7928932056       -1.8246300027
