  62
        -98.93322670
 C         -2.3533982504       -0.6512641899        0.1875783093
 C         -2.7543154205        0.7096277101        0.1740089393
 C         -4.0985048906        1.0138347099       -0.3441539606
 C         -4.8794136805        0.0061598599       -0.7755896606
 C         -6.2628183905        0.0077515898       -1.3915769006
 C         -7.1577251006        1.2407652497       -1.2972252905
 C         -7.6301757106        1.5814308196        0.1154565795
 H         -8.1808171807        2.5236739895        0.0731494596
 H         -8.3240171905        0.8049317595        0.4471364995
 C         -6.5306520106        1.6961376797        1.1684200595
 H         -6.0430916405        0.7277204797        1.2980847994
 H         -7.0051001106        1.9465666696        2.1212062595
 C         -5.4644540607        2.7540887798        0.8894656295
 H         -4.8465801507        2.8423948498        1.7872792195
 H         -5.9415633608        3.7206611097        0.7163271395
 C         -4.5222318007        2.4533263999       -0.2898135906
 H         -4.9619364708        2.7591216499       -1.2362789005
 H         -3.6078436608        3.0370924000       -0.1492761906
 H         -8.0452501806        1.0270721696       -1.8990345705
 H         -6.6683064007        2.0973796697       -1.7510698605
 H         -6.7842404304       -0.8476520403       -0.9507199706
 H         -6.1162567805       -0.2331015302       -2.4502745606
 O         -4.4500445504       -1.2871130801       -0.7520019607
 C         -3.2028002303       -1.6554447600       -0.2742655107
 O         -3.0031927902       -2.8852455499       -0.3252886808
 O         -2.0124714406        1.6441149101        0.5831005893
 C         -0.9750663404       -0.9488984398        0.7478774492
 C          0.0718554196       -1.1565521196       -0.3209725208
 C         -0.0689866303       -2.1260004796       -1.3084427308
 C          0.9366514397       -2.3300401495       -2.2355390509
 C          2.1086738196       -1.5964772094       -2.1808333209
 C          2.2580637896       -0.6245840994       -1.1988837509
 C          1.2348901496       -0.4013120295       -0.2881926508
 H          1.3616976795        0.3686606805        0.4592763992
 N          3.4295069595        0.1438052807       -1.1148163709
 S          3.9913517695        0.5542914107        0.4253042691
 O          3.8092789496       -0.5573176193        1.3302994291
 O          3.3895831394        1.8033938407        0.8203988492
 C          5.7258987195        0.7976494709        0.0900547691
 C          6.6041833296       -0.2480227390        0.3042388090
 C          7.9471596195       -0.0656929189        0.0142301690
 C          8.3862058294        1.1514528212       -0.4848524210
 C          7.4929196393        2.1918066011       -0.6939295310
 C          6.1487485693        2.0167408910       -0.4052200409
 H          5.4198267892        2.7985487409       -0.5421902709
 H          7.8386859992        3.1375104012       -1.0789830809
 H          9.4318049494        1.2912377613       -0.7093320610
 H          8.6443373796       -0.8713245388        0.1790390789
 H          6.2186311097       -1.1727033591        0.7027734790
 H          4.1705616595       -0.1976271892       -1.7114540709
 H          2.8996447896       -1.7715156793       -2.8943034909
 H          0.8131317397       -3.0828418195       -2.9995516209
 H         -0.9696506402       -2.7193814497       -1.3370996208
 H         -0.6912136304       -0.0463646298        1.3074200292
 C         -0.9483887202       -2.1291354398        1.7032464792
 C          0.2379819298       -2.3033324797        2.6018827591
 C         -1.0840324302       -1.8913087199        3.1755132292
 H         -1.6368144601       -2.6076405399        3.7647064992
 H         -1.1985740403       -0.8697468299        3.5085176992
 H          0.5910705700       -3.3047645197        2.7954386091
 H          1.0283342998       -1.5684599396        2.5420733091
 H         -1.4050745601       -3.0207319798        1.2933899992
