  62
        -98.94903914
 C          0.8987160919        1.3472824495        0.2391299540
 C          1.4491954773        0.2695889520        0.9696619433
 C          2.2738762178       -0.6723491629        0.2016062279
 C          2.4000959538       -0.5012985172       -1.1272093700
 C          3.2180665726       -1.3804616098       -2.0283936659
 C          4.6492492219       -0.8475756324       -2.1817611603
 C          5.3256604009       -0.5139190144       -0.8520685111
 H          6.3402210412       -0.1791652023       -1.0783511392
 H          4.8042495250        0.3277472711       -0.3904795534
 C          5.3811169814       -1.6828573582        0.1412876897
 H          6.3815919077       -1.7239987987        0.5768911841
 H          5.2182582116       -2.6238279813       -0.3853679444
 C          4.3933384883       -1.5738920664        1.3042008035
 H          4.6691569480       -2.3203896263        2.0536655372
 H          4.4869136909       -0.5904072838        1.7711938922
 C          2.9165709392       -1.8026074331        0.9563087192
 H          2.8074995072       -2.7439641269        0.4127260917
 H          2.3654946589       -1.8768477842        1.8982660189
 H          5.2395881693       -1.5934083733       -2.7173436869
 H          4.6166729437        0.0601018674       -2.7888571418
 H          2.7364908709       -1.4037680096       -3.0079574226
 H          3.2362603316       -2.3906015872       -1.6229135391
 O          1.8289909370        0.5281262467       -1.8016393038
 C          1.0652128392        1.4767602663       -1.1404006116
 O          0.6093174627        2.3743701747       -1.8747710005
 O          1.2540073647        0.0982259829        2.2037260291
 C          0.0128672652        2.3482220100        0.9598237543
 C         -1.3636439383        2.3189612171        0.3428347177
 C         -2.0881242352        3.4558517352        0.0112647064
 C         -3.3209837216        3.3410627226       -0.6084454087
 C         -3.8445550874        2.1014487460       -0.9253447562
 C         -3.1340943932        0.9567444870       -0.5802354162
 C         -1.9232766167        1.0748549156        0.0790463904
 H         -1.3765145287        0.1828325265        0.3480662532
 N         -3.6288319156       -0.3223253881       -0.8728505607
 S         -2.5699547791       -1.5713060030       -1.2198078054
 O         -1.3796631021       -1.1180175533       -1.9011591768
 O         -3.3834891015       -2.5308347886       -1.9395077965
 C         -2.1684086621       -2.2565118262        0.3726319633
 C         -0.8588581519       -2.5764759158        0.6681270264
 C         -0.5701186296       -3.1482519443        1.8970534496
 C         -1.5902521000       -3.3849422316        2.8047613943
 C         -2.9013216768       -3.0584091927        2.4923045735
 C         -3.1974034132       -2.4923085326        1.2632066488
 H         -4.2029228507       -2.2286275889        0.9812281000
 H         -3.6914418174       -3.2431148608        3.2021260173
 H         -1.3589841130       -3.8253415731        3.7617600668
 H          0.4496441894       -3.3984480103        2.1408688339
 H         -0.0904813422       -2.3570167058       -0.0581929168
 H         -4.4495744234       -0.3425974684       -1.4602812909
 H         -4.7892216985        2.0156874981       -1.4402897330
 H         -3.8721260746        4.2319742035       -0.8689889778
 H         -1.6818364103        4.4316279629        0.2212769810
 H         -0.0606383280        1.9837939164        1.9955089599
 C          0.6471621537        3.7227575804        0.9673523390
 C          0.3653369263        4.6805838708        2.0853511585
 C          1.7081893857        4.0243114994        1.9816607879
 H          2.5553736369        4.6215907978        1.6795562144
 H          1.9535524548        3.2439950031        2.6872044018
 H          0.2924572466        5.7329830570        1.8561069897
 H         -0.2990156440        4.3513905036        2.8697180594
 H          0.7810438761        4.1224726160       -0.0317918399
