  62
        -98.93909485
 C          0.7967434703        1.2216212147        0.2277778420
 C          1.6056959279        0.5907548845        1.2033072088
 C          2.5597006819       -0.4260790893        0.7246470771
 C          2.5896698898       -0.7332016783       -0.5852091292
 C          3.4786137249       -1.6738300877       -1.3730406130
 C          4.7031156754       -2.3166954867       -0.7269459516
 C          5.8484935839       -1.3490389720       -0.4279300373
 H          6.6140248383       -1.8861151622        0.1362183845
 H          6.2931061525       -1.0363198464       -1.3760828105
 C          5.4642684928       -0.0844797444        0.3361633522
 H          6.3649689847        0.5249473512        0.4499725386
 H          4.7539024331        0.4994032460       -0.2527453841
 C          4.8818092399       -0.3153744319        1.7288956415
 H          4.7888203877        0.6597092172        2.2154441976
 H          5.5719390881       -0.9187069962        2.3220594039
 C          3.4959611350       -0.9813197018        1.7592953995
 H          3.5760026168       -2.0618799472        1.6691824240
 H          3.0402469905       -0.7670314833        2.7307701737
 H          4.4165658475       -2.8598280860        0.1688573581
 H          5.0786317212       -3.0574239918       -1.4381770791
 H          2.8247677370       -2.4703287797       -1.7402854520
 H          3.7976609756       -1.1093490214       -2.2552074040
 O          1.7005301767       -0.1897866100       -1.4653586421
 C          0.7854168625        0.7856842115       -1.0968076058
 O          0.0488896237        1.1582254244       -2.0265031690
 H         -1.8154953407        0.4272476026        1.2667132295
 C         -2.2370231870        1.1119330557        0.5444113457
 C         -1.4888482641        2.2027156414        0.1190410128
 C         -2.0534095378        3.0830009918       -0.7947253037
 C         -3.3331648076        2.8667579477       -1.2733146650
 C         -4.0707593818        1.7736311826       -0.8583186255
 C         -3.5150148438        0.8883873758        0.0587712499
 N         -4.2421429822       -0.2232021858        0.5073720714
 S         -3.4698134590       -1.6016379799        1.0237202200
 O         -4.4779930040       -2.6354628497        0.9120777640
 O         -2.9275199412       -1.4071111559        2.3457139114
 C         -2.1562761558       -1.9451372158       -0.1339272034
 C         -0.9626561224       -2.4360270980        0.3535221111
 C          0.0295785456       -2.8022866603       -0.5405622365
 C         -0.1829210732       -2.6563459197       -1.9021348635
 C         -1.3798850366       -2.1447360206       -2.3762081896
 C         -2.3820065390       -1.7941213525       -1.4871035231
 H         -3.3242873764       -1.4042907498       -1.8358139565
 H         -1.5336170571       -2.0165651365       -3.4353397916
 H          0.5890667759       -2.9357657249       -2.6018245213
 H          0.9627789967       -3.1932829778       -0.1667545258
 H         -0.8297591050       -2.5169398090        1.4211928527
 H         -5.0995180459       -0.4166313175        0.0122340433
 H         -5.0666781701        1.6026046492       -1.2372066249
 H         -3.7592001509        3.5543449359       -1.9879795410
 H         -1.4823357658        3.9243680059       -1.1504694166
 C         -0.1001526181        2.3586823159        0.6805304836
 H         -0.1659468130        2.2380317723        1.7750800286
 C          0.4940920696        3.7378355994        0.4289573399
 C          1.9761943659        3.9565430761        0.4681915581
 C          1.2356315855        4.0764231966       -0.8282229494
 H          1.1030093684        5.0611652700       -1.2519008046
 H          1.3549312408        3.2970032971       -1.5646703379
 H          2.6054626619        3.0917977782        0.6214090463
 H          2.3503535307        4.8554190632        0.9348614649
 H         -0.1174737835        4.5243336466        0.8606702527
 O          1.5470981124        0.8740582790        2.4305632911
