  62
        -98.94702770
 C         -2.2359356769       -0.6725763675       -0.4878859247
 C         -1.4666560342        0.3110251978       -1.1541406279
 C         -1.8589804718        1.7088414448       -0.9202338062
 C         -2.8821133957        1.9832276529       -0.0930269408
 C         -3.3525471546        3.3609596114        0.2712893976
 C         -2.6506862669        3.8799417913        1.5334042494
 C         -1.1280590846        3.7420726985        1.5018360612
 H         -0.7427018148        4.1882580743        2.4218939596
 H         -0.8540576798        2.6840310924        1.5271258351
 C         -0.4527471499        4.4033209691        0.2923414256
 H          0.4260165667        4.9499320895        0.6412945752
 H         -1.1289219536        5.1287072907       -0.1629412129
 C          0.0311399694        3.4128533036       -0.7682805342
 H          0.5961929232        2.6171510320       -0.2761867112
 H          0.7136309582        3.9377665707       -1.4425977119
 C         -1.0677767509        2.7733854857       -1.6273696302
 H         -1.7296708291        3.5498873185       -2.0171564266
 H         -0.5845007021        2.2775904153       -2.4741885490
 H         -2.9180791736        4.9300893680        1.6678585926
 H         -3.0256576061        3.3208391154        2.3940044927
 H         -3.1656462822        4.0346016385       -0.5628522663
 H         -4.4272486811        3.3172292803        0.4576786326
 O         -3.5954197401        1.0164169343        0.5392697181
 C         -3.2833098764       -0.3202303402        0.3688450964
 O         -4.0138890209       -1.0992002685        1.0158889977
 H          0.5243580201       -1.1617087779       -0.2447272598
 C          0.2975918478       -1.9186047422        0.4859024389
 C         -0.9311925019       -2.5626812891        0.4480846441
 C         -1.2006843737       -3.5473912019        1.3904008195
 C         -0.2663046914       -3.8641990042        2.3606028055
 C          0.9345088030       -3.1821833801        2.4274315589
 C          1.2139480045       -2.1938978463        1.4886681803
 N          2.4164240871       -1.4744563634        1.5448058035
 S          2.4556753239        0.1931026622        1.3084359794
 O          3.3139360261        0.6929823574        2.3655861741
 O          1.1283381360        0.7516619467        1.2525210411
 C          3.3281384586        0.3627114292       -0.2356278521
 C          4.7095557008        0.3308580713       -0.1819596751
 C          5.4338282438        0.4327675702       -1.3574240397
 C          4.7677405254        0.5642540278       -2.5669409049
 C          3.3830999566        0.5955214426       -2.6041211717
 C          2.6506848862        0.4926152225       -1.4302835015
 H          1.5715835358        0.5108517519       -1.4480315402
 H          2.8586783939        0.6963193049       -3.5410204466
 H          5.3293602792        0.6439163086       -3.4844804830
 H          6.5113119084        0.4098655718       -1.3279587746
 H          5.1852545474        0.2422131014        0.7807284528
 H          3.0071718210       -1.7265294716        2.3241485961
 H          1.6504411172       -3.4048626121        3.2045876987
 H         -0.4847628357       -4.6326293581        3.0868183722
 H         -2.1567831486       -4.0497113447        1.3729687799
 C         -1.9644359891       -2.1675921122       -0.5810929464
 H         -2.9089871552       -2.6586876571       -0.3081873234
 C         -1.5629136359       -2.6417320027       -1.9634377356
 C         -1.8116685854       -4.0701348702       -2.3401934603
 C         -2.6279632486       -2.9774281676       -2.9615512440
 H         -2.4585940148       -2.7271429149       -3.9978340719
 H         -3.6567743312       -2.8684153090       -2.6494801638
 H         -2.2901385976       -4.7058061378       -1.6105095397
 H         -1.0792463254       -4.5753580070       -2.9506162118
 H         -0.6635915829       -2.1709639210       -2.3362488207
 O         -0.4992467438        0.0628256539       -1.9225637499
