  62
        -98.93801830
 C          0.8249633869        1.5443210679        0.1956954661
 C          1.8610783046        1.1717407721        1.0851912806
 C          2.9607939106        0.3551232010        0.5342229144
 C          2.8850495821       -0.0456023645       -0.7481099206
 C          3.9183064674       -0.8001213534       -1.5455455886
 C          4.0243075340       -2.3001544184       -1.2093118879
 C          3.7690690367       -2.6585851743        0.2532855118
 H          2.8381272471       -2.1945318830        0.5858513931
 H          3.6336965426       -3.7414379828        0.3194535374
 C          4.8978554493       -2.2698040884        1.2041266419
 H          4.6027773767       -2.5670289529        2.2138494680
 H          5.7957793698       -2.8339705820        0.9405585054
 C          5.2527531775       -0.7843276173        1.2214608304
 H          5.7400534567       -0.4952908434        0.2944245890
 H          5.9831153714       -0.6315714306        2.0215012019
 C          4.0809842811        0.1450952487        1.5236308556
 H          4.4774000728        1.1449430860        1.7412336433
 H          3.5986997240       -0.1795264579        2.4533009313
 H          5.0161311491       -2.6511732360       -1.4982566307
 H          3.2967936770       -2.8391421073       -1.8197433987
 H          3.6321955021       -0.6973171162       -2.5943488193
 H          4.8805517661       -0.3083566795       -1.4209347545
 O          1.7946136163        0.2148925985       -1.5228727677
 C          0.7464735695        1.0142268227       -1.0920606802
 O         -0.1580349831        1.1607871997       -1.9324126748
 O          1.8899741816        1.5308793425        2.2940225255
 C         -0.2103887522        2.5323313821        0.6970910219
 C         -1.6080286953        2.1332232188        0.3002197116
 C         -2.4115463003        2.8947233563       -0.5393258390
 C         -3.7001244414        2.4882588690       -0.8348066269
 C         -4.2126145236        1.3182707454       -0.3063256399
 C         -3.4150697646        0.5458590041        0.5298662090
 C         -2.1258188927        0.9568608534        0.8283404399
 H         -1.5173711808        0.3516746611        1.4855945175
 N         -3.9069850450       -0.6450568239        1.0898295977
 S         -2.8914029012       -1.9611871787        1.2135423595
 O         -3.7849719119       -3.0998242982        1.2729269967
 O         -2.0072630543       -1.8092512211        2.3427385016
 C         -1.9552076821       -2.0182091902       -0.3022471436
 C         -2.6184804956       -1.8869797511       -1.5058605412
 C         -1.8944829813       -1.9706676926       -2.6830369598
 C         -0.5295599356       -2.2037600502       -2.6389734890
 C          0.1186323703       -2.3460744783       -1.4236240401
 C         -0.5961340754       -2.2411784390       -0.2423825574
 H         -0.1232548452       -2.3210599267        0.7247437541
 H          1.1801336848       -2.5257569934       -1.3879257066
 H          0.0352761883       -2.2676788908       -3.5554545860
 H         -2.3949335855       -1.8516658624       -3.6303656221
 H         -3.6832339680       -1.7200343989       -1.5148374796
 H         -4.8292043947       -0.9125633751        0.7779119083
 H         -5.2190681543        1.0025244964       -0.5350721589
 H         -4.3123139150        3.0885410114       -1.4903990023
 H         -2.0224126207        3.7983176131       -0.9779583427
 H         -0.1451909298        2.4650941250        1.7964036787
 C          0.1160491626        3.9745735031        0.3290305815
 C          1.5331173475        4.4356772077        0.1713060628
 C          0.6344228437        4.3560505976       -1.0242219917
 H          0.2880614559        5.2786327374       -1.4663854192
 H          0.7971024848        3.5630916934       -1.7379333300
 H          1.7991738203        5.4096901427        0.5537523428
 H          2.3163886564        3.6989545892        0.2745940974
 H         -0.5624891811        4.6747460869        0.8066734811
