  62
        -98.93971880
 C          2.4380590123       -0.2818215033       -0.3390348030
 C          3.6201157773       -0.0036592043       -1.0663155435
 C          4.7332464356        0.5617308237       -0.2927932919
 C          4.5624582012        0.8102228960        1.0187168541
 C          5.6221108280        1.3518709510        1.9331704636
 C          6.4166157438        0.2196393640        2.5988057958
 C          6.9155656808       -0.8429243177        1.6196561794
 H          6.0566998020       -1.3689389252        1.1966819461
 H          7.4879199645       -1.5729691106        2.1960342935
 C          7.7859803619       -0.2966344484        0.4793588033
 H          8.6543160757       -0.9478524968        0.3590698982
 H          8.1585008965        0.6947169060        0.7397192011
 C          7.0857780387       -0.2336231547       -0.8794095815
 H          6.6289025827       -1.2013679638       -1.1012581910
 H          7.8443453938       -0.0471345658       -1.6442769077
 C          6.0117997761        0.8515937225       -1.0277332788
 H          5.7417966661        0.9097558357       -2.0863407434
 H          6.4205469315        1.8179160757       -0.7250887600
 H          5.7733301160       -0.2679210706        3.3348634811
 H          7.2653505825        0.6582751849        3.1266878622
 H          6.2915351713        1.9940012822        1.3639934595
 H          5.1348568044        1.9463987410        2.7078430892
 O          3.4043723366        0.5522708686        1.6777079469
 C          2.3162559291       -0.0063609314        1.0230324899
 O          1.3267939348       -0.2049411122        1.7523538048
 H         -1.2814787502       -1.1658751009        0.0081460816
 C         -1.1197952446       -0.1895550800       -0.4210853973
 C          0.0973522220        0.1139515272       -1.0077101159
 C          0.2745924238        1.3828715689       -1.5544835263
 C         -0.7349623837        2.3235682628       -1.5000474852
 C         -1.9431401728        2.0235108628       -0.8946457918
 C         -2.1326944785        0.7609738138       -0.3513437527
 N         -3.3472679580        0.4521555973        0.2866387157
 S         -4.7773238729        0.9538355788       -0.4566174588
 O         -4.7576514277        0.6048672103       -1.8600373207
 O         -4.9859551799        2.3490699688       -0.1605681869
 C         -5.9747059643       -0.0349302876        0.4169828528
 C         -6.4417914376       -1.2016575165       -0.1576674298
 C         -7.3537649932       -1.9751771850        0.5432494376
 C         -7.7777135138       -1.5727056507        1.8007440875
 C         -7.2992967882       -0.3990532311        2.3644468834
 C         -6.3887137877        0.3799017698        1.6686036739
 H         -5.9968593502        1.3029240108        2.0628631648
 H         -7.6327091590       -0.0889292847        3.3416385168
 H         -8.4874588205       -2.1763274202        2.3441060094
 H         -7.7297492977       -2.8865035419        0.1068228121
 H         -6.0909336513       -1.4711497966       -1.1409873431
 H         -3.3973709459       -0.5200417413        0.5588538820
 H         -2.7391458122        2.7486571355       -0.8423291919
 H         -0.5823364498        3.3026737499       -1.9294696268
 H          1.2206438834        1.6212148531       -2.0218137856
 C          1.2452135745       -0.8629595913       -1.0782416236
 H          1.5623955671       -0.9374732001       -2.1285828297
 C          0.9153177276       -2.2497677928       -0.5698241403
 C          0.1432983036       -3.1993578531       -1.4353695456
 C          1.6025418304       -3.4303275363       -1.1851054232
 H          1.8938200187       -4.2491026153       -0.5443865878
 H          2.2976152169       -3.2370295393       -1.9890418589
 H         -0.1559541242       -2.8519629024       -2.4127657857
 H         -0.5667590764       -3.8643855164       -0.9673763716
 H          0.7435299027       -2.2749407439        0.5002880027
 O          3.7361840943       -0.2132753187       -2.3041596244
