  62
        -98.93281172
 C         -2.4027713049       -1.2281067808       -0.0165497488
 C         -2.5367337013        0.0188370030       -0.6719785689
 C         -3.9073742887        0.5447304559       -0.7817081688
 C         -4.9285893657       -0.1725061829       -0.2787851059
 C         -6.3648925761        0.2663911763       -0.2374322961
 C         -6.5692401235        1.2885835101        0.8992188528
 C         -6.9508541500        2.6908897767        0.4248914515
 H         -7.9992581229        2.6891619940        0.1195061990
 H         -6.8579353713        3.3620069094        1.2813607552
 C         -6.1252780648        3.2496329660       -0.7380419830
 H         -6.4828194209        2.8275019493       -1.6783468503
 H         -6.3245392210        4.3224244459       -0.7828620576
 C         -4.6088343002        3.0344255420       -0.6496670457
 H         -4.2967049779        2.9039944228        0.3867351648
 H         -4.1155239564        3.9360642585       -1.0183881586
 C         -4.0782260970        1.8591342075       -1.4919243024
 H         -4.7165185948        1.7203613303       -2.3689704203
 H         -3.0761069790        2.1118558202       -1.8512423696
 H         -7.3490344638        0.9316896133        1.5736548105
 H         -5.6478504209        1.3391358490        1.4831897878
 H         -6.6450584411        0.6977548172       -1.1957722106
 H         -6.9712601101       -0.6225106942       -0.0630682694
 O         -4.7579696076       -1.3719056139        0.3371214707
 C         -3.4983601962       -1.9264634712        0.4891909429
 O         -3.4856056025       -3.0225912640        1.0851817036
 H          1.4733716146       -0.8471481810       -0.5051471884
 C          1.1042903480       -0.4940694789        0.4427270465
 C         -0.1323338654       -0.8992437843        0.9166610124
 C         -0.5667919524       -0.4152518293        2.1487514367
 C          0.2148228542        0.4567310490        2.8805057355
 C          1.4505953468        0.8586062263        2.4042050791
 C          1.8921670465        0.3842276159        1.1751108711
 N          3.1253076812        0.8046711447        0.6524470994
 S          4.0288519667       -0.2587225593       -0.2941262195
 O          3.5126873532       -0.2551234515       -1.6394376108
 O          4.1174336444       -1.5486681630        0.3533693806
 C          5.6111977311        0.5633241006       -0.2586556788
 C          5.7921217648        1.6748263378       -1.0604656977
 C          7.0069385751        2.3400071588       -1.0187791975
 C          8.0151816141        1.8854664408       -0.1813577028
 C          7.8198786625        0.7674065978        0.6152714859
 C          6.6062303988        0.0984252825        0.5799948979
 H          6.4107783096       -0.7784210487        1.1760668413
 H          8.6068311209        0.4146839547        1.2622728331
 H          8.9599766969        2.4048410286       -0.1517954296
 H          7.1632766964        3.2082128242       -1.6384858040
 H          4.9830511454        1.9854980684       -1.7010163928
 H          3.7014702827        1.2788400745        1.3342435823
 H          2.0620749283        1.5411443050        2.9746538569
 H         -0.1368755960        0.8234907153        3.8332739282
 H         -1.5316798572       -0.7338475444        2.5210233347
 C         -1.0278622870       -1.8481891623        0.1576622320
 H         -1.1739305308       -2.7459725744        0.7767234060
 C         -0.4656090243       -2.2707561547       -1.1828520342
 C          0.5579251356       -3.3622851653       -1.2563049412
 C         -0.8373732193       -3.6085130909       -1.7446036033
 H         -1.0049677518       -3.6926924174       -2.8078133355
 H         -1.4857521300       -4.2337463900       -1.1479067561
 H          1.3547018007       -3.2720509049       -1.9798449318
 H          0.8636311626       -3.8232783477       -0.3288670032
 H         -0.3761769043       -1.4438593363       -1.8787759998
 O         -1.5635050929        0.6637977865       -1.1433235755
