  62
        -98.94414728
 C          0.8050391601        1.1984138905        0.2874160494
 C          1.5205620904        0.3872658407        1.2038516994
 C          2.4210852909       -0.6135514089        0.6171362894
 C          2.4483855210       -0.7670275488       -0.7187748207
 C          3.3845506414       -1.6766298183       -1.4589609907
 C          4.6816124311       -0.9435403278       -1.8325774805
 C          5.3242102008       -0.1857703476       -0.6706132304
 H          6.2447732906        0.2659601828       -1.0466406703
 H          4.6663040904        0.6331785721       -0.3703125104
 C          5.6445051510       -1.0531594576        0.5548771595
 H          6.6486696609       -0.8062974172        0.9059830096
 H          5.6506610715       -2.1063310176        0.2720016494
 C          4.6971458009       -0.8526999581        1.7394349695
 H          5.1340063510       -1.3456352780        2.6120875295
 H          4.6204538404        0.2127157919        1.9721094196
 C          3.2797927611       -1.4110177786        1.5575785893
 H          3.3378864915       -2.4538030686        1.2400943893
 H          2.7788449110       -1.3706838589        2.5294049593
 H          5.3900848515       -1.6743420675       -2.2266847205
 H          4.4578335509       -0.2256891178       -2.6250170905
 H          2.8927029516       -2.0072097485       -2.3746059707
 H          3.6126095417       -2.5415598183       -0.8395879007
 O          1.6546206408       -0.0573548890       -1.5576997907
 C          0.8306163503        0.9568190206       -1.0871690406
 O          0.1910697502        1.5389578804       -1.9818288406
 O          1.4198798103        0.5042452305        2.4551231794
 C         -0.0669255103        2.3037614401        0.8543804194
 C         -1.4253649603        2.2911529896        0.1999765293
 C         -2.0103129107        3.3959945794       -0.4032266206
 C         -3.2616990306        3.2906633690       -0.9856726007
 C         -3.9494916501        2.0922049487       -0.9823633208
 C         -3.3696651597        0.9775316189       -0.3843323809
 C         -2.1253807798        1.0908470493        0.2110110892
 H         -1.6797261995        0.2299328894        0.6876036491
 N         -4.0146723992       -0.2625376614       -0.4131995511
 S         -3.6339751688       -1.5082244913        0.6156908589
 O         -4.6741497284       -2.4874972017        0.3809513187
 O         -3.4969540691       -1.0588844414        1.9821104989
 C         -2.0877386485       -2.1539080407        0.0149170389
 C         -1.1121111284       -2.5148786303        0.9224711890
 C          0.0650416118       -3.0758112598        0.4556916490
 C          0.2458416020       -3.2640724896       -0.9052814710
 C         -0.7382883481       -2.8860034800       -1.8050389011
 C         -1.9199007883       -2.3289060905       -1.3437730611
 H         -2.7056885784       -2.0265152207       -2.0160160311
 H         -0.5885640979       -3.0233868698       -2.8638703911
 H          1.1598399222       -3.7082028192       -1.2656263210
 H          0.8338561319       -3.3590329396        1.1563537590
 H         -1.2858580485       -2.3400901005        1.9729976990
 H         -4.9600433592       -0.2792834517       -0.7613209511
 H         -4.9199296501        2.0106505883       -1.4473004309
 H         -3.7057942609        4.1555907188       -1.4548516007
 H         -1.4816248311        4.3340744896       -0.4387711805
 H         -0.2062182203        2.0270212799        1.9139285394
 C          0.5953779191        3.6743536403        0.8471347496
 C          2.0875524691        3.8149144809        0.8338970897
 C          1.2871834890        4.2152938907       -0.3669943503
 H          1.1888326186        5.2680649407       -0.5878598002
 H          1.3188577993        3.5856905408       -1.2422650304
 H          2.5345263287        4.5889332111        1.4397658798
 H          2.6759822894        2.9104379112        0.7787913897
 H          0.0556363888        4.3896908001        1.4602205996
