  62
        -98.93824051
 C          2.8412579143        0.1219544078        0.0475209624
 C          2.4290464794       -0.7634046281       -0.9785580555
 C          2.2464751023       -2.1657702328       -0.5748902876
 C          2.4070631587       -2.5262543621        0.7097916719
 C          2.2396612010       -3.9116152136        1.2716476091
 C          0.7809990066       -4.2877438788        1.5663323687
 C         -0.0745019377       -4.6011604838        0.3381332238
 H          0.4493369784       -5.3160166485       -0.2976821981
 H         -0.9817336533       -5.0886994128        0.7006150949
 C         -0.4800285795       -3.3728982844       -0.4881643294
 H         -0.3829295316       -2.4698251473        0.1211456713
 H         -1.5361365489       -3.4607780843       -0.7568177970
 C          0.2984285035       -3.1952399644       -1.7924032962
 H         -0.0209596160       -2.2593386879       -2.2581630962
 H          0.0543121575       -4.0119780987       -2.4761044150
 C          1.8221021091       -3.1444489122       -1.6292167989
 H          2.2073952471       -4.1370199928       -1.3969843624
 H          2.2528837289       -2.8137116403       -2.5779402999
 H          0.7966741767       -5.1729211697        2.2067834926
 H          0.3174049758       -3.4750206684        2.1315314187
 H          2.6755542646       -4.6419978759        0.5889491398
 H          2.7985189222       -3.9348437442        2.2096289456
 O          2.7692322435       -1.6393932793        1.6751071007
 C          2.9798091615       -0.3067028895        1.3708401559
 O          3.2992933438        0.3972316349        2.3509573771
 O          2.2173281246       -0.4288306382       -2.1731279756
 C          3.0472678075        1.6153647890       -0.1608595587
 C          1.7571201215        2.3262238515        0.1613236590
 C          1.7151788887        3.4211164814        1.0148521627
 C          0.5055052509        3.9994418200        1.3619462735
 C         -0.6856009481        3.4889045750        0.8771149198
 C         -0.6499641012        2.4009362713        0.0166663542
 C          0.5613273823        1.8379547146       -0.3468144408
 H          0.5761121369        0.9864589032       -1.0129629183
 N         -1.8719337113        1.8231141238       -0.4283443845
 S         -2.4748255814        0.7927349890        0.7802491351
 O         -2.7821505569        1.5993890408        1.9334259583
 O         -1.5607143208       -0.3091994061        0.9946896382
 C         -3.9797312601        0.2118950811        0.0227980029
 C         -5.1107421722        1.0016371757        0.0980975348
 C         -6.2701856125        0.5697254061       -0.5258992380
 C         -6.2781666513       -0.6357558887       -1.2119219341
 C         -5.1344634525       -1.4170103543       -1.2789038731
 C         -3.9711109036       -0.9898022233       -0.6581566769
 H         -3.0594792191       -1.5661864558       -0.6769698930
 H         -5.1430521467       -2.3543345500       -1.8115687350
 H         -7.1817890474       -0.9701692359       -1.6965428287
 H         -7.1621071133        1.1730866571       -0.4754776882
 H         -5.0577111377        1.9259434174        0.6487224711
 H         -1.7070649128        1.2473977683       -1.2465577616
 H         -1.6369251733        3.8991882317        1.1728004409
 H          0.4894478171        4.8445709115        2.0332407605
 H          2.6365732552        3.7999435052        1.4327338869
 H          3.7882272635        1.9198563664        0.5956768710
 C          3.6114525584        1.9763549446       -1.5264492978
 C          2.8139062653        2.6696197017       -2.5859256769
 C          3.8908871678        3.4125798765       -1.8579826521
 H          4.8025725028        3.6533499843       -2.3830803020
 H          3.5835111348        4.1565230880       -1.1384899118
 H          2.9817320179        2.3741217569       -3.6100861769
 H          1.7870571453        2.9198670680       -2.3688879079
 H          4.3362454337        1.2467883964       -1.8709620739
