  62
        -98.93458508
 C         -1.4141115939       -1.5383149223        0.6437614300
 C         -1.5523236042       -0.1930553040        1.0663999204
 C         -2.8428220337        0.4706343896        0.8044572375
 C         -3.8177634090       -0.2356427009        0.2035156697
 C         -5.1821717531        0.2440697227       -0.2116637458
 C         -5.1391382890        1.0931385429       -1.4949113017
 C         -3.9772262709        2.0808576971       -1.5801287130
 H         -3.0366789842        1.5400088446       -1.4587364855
 H         -3.9783473538        2.5066733910       -2.5870226250
 C         -4.0309412773        3.2377624126       -0.5854058093
 H         -3.1705424635        3.8803171695       -0.7873392488
 H         -4.9338637356        3.8246425118       -0.7697712723
 C         -4.0049730300        2.8497459685        0.8933803876
 H         -4.9664082077        2.4492086498        1.2034764203
 H         -3.8523930310        3.7678016128        1.4686486832
 C         -2.8790466767        1.8990318256        1.2902683288
 H         -2.8431719411        1.8430680884        2.3852520764
 H         -1.9192629287        2.3317541649        0.9892650506
 H         -6.0847896331        1.6299090846       -1.5867880673
 H         -5.0548425286        0.4110469300       -2.3443683095
 H         -5.7861982521       -0.6454359638       -0.4032652557
 H         -5.6470715236        0.7900934614        0.6040013513
 O         -3.6489061787       -1.5343052767       -0.1702380596
 C         -2.4554718240       -2.2165133802        0.0115375283
 O         -2.4745875454       -3.3835000694       -0.4211564187
 O         -0.6252005805        0.4377527806        1.6412424010
 C         -0.0570548791       -2.1773779814        0.8789120282
 C          0.8323972040       -1.8762444014       -0.2995433751
 C          0.4630839471       -2.2520326469       -1.5887344477
 C          1.2742775230       -1.9457419905       -2.6649141252
 C          2.4549651001       -1.2461155559       -2.4812540232
 C          2.8264657062       -0.8580698529       -1.1996289947
 C          2.0169912436       -1.1795851856       -0.1174626881
 H          2.3181031877       -0.8735603742        0.8727768746
 N          4.0174976051       -0.1533200345       -0.9847098033
 S          4.1350931488        0.9826508559        0.2317140148
 O          5.2592424992        1.8047125812       -0.1655491260
 O          4.2646495074        0.3294008643        1.5101776319
 C          2.6434453338        1.9599112710        0.1767866627
 C          2.1859924409        2.4124347578       -1.0450707543
 C          1.0637017180        3.2229185530       -1.0804931816
 C          0.4284989743        3.5753475800        0.1003375687
 C          0.8998374317        3.1136359285        1.3182802834
 C          2.0166920767        2.2953895101        1.3581523417
 H          2.4044355566        1.9046457167        2.2849804324
 H          0.3985633943        3.3756347472        2.2357898465
 H         -0.4405456072        4.2147419503        0.0702427249
 H          0.6880762088        3.5781769754       -2.0269187999
 H          2.7036853771        2.1341716676       -1.9487027048
 H          4.5144616934        0.1241945393       -1.8178661516
 H          3.0854127015       -1.0032948678       -3.3229525227
 H          0.9814945071       -2.2472444974       -3.6593193859
 H         -0.4653993347       -2.7848524406       -1.7312723725
 H          0.3602538815       -1.6426404014        1.7472137104
 C         -0.1194998474       -3.6535096456        1.2412060117
 C          0.4809214454       -4.7408066547        0.4057352397
 C          1.1274075391       -4.3517610974        1.6989423991
 H          1.0668583545       -5.0286322033        2.5377394820
 H          2.0513877301       -3.7939675775        1.6479928471
 H         -0.0517604572       -5.6780014963        0.3516443770
 H          0.9790712534       -4.4704253891       -0.5117329666
 H         -1.0357079231       -3.9068939088        1.7637866327
