  62
        -98.93998555
 C          2.1157942790        1.4399161268        0.5399222438
 C          2.0580708189        0.2311412432        1.2813072577
 C          3.1074942297       -0.7533943205        1.0049077083
 C          4.0673106768       -0.4653951895        0.1076084125
 C          5.2201979985       -1.3546729338       -0.2717011902
 C          4.8753002143       -2.3963957222       -1.3449593726
 C          3.9848405359       -3.5469802569       -0.8737793101
 H          4.0050626678       -4.3073221681       -1.6570928861
 H          4.4151176733       -3.9932710732        0.0232953898
 C          2.5255913535       -3.1509133058       -0.6070087685
 H          2.3143611051       -2.1911437883       -1.0841247328
 H          1.8612189460       -3.8865028327       -1.0651474931
 C          2.1520338159       -3.0589628030        0.8726865302
 H          2.2191167956       -4.0482591697        1.3307285529
 H          1.1161272001       -2.7182201183        0.9413822731
 C          3.0195874700       -2.0869455799        1.6826859210
 H          2.5479758710       -1.9346787479        2.6565304342
 H          4.0145606293       -2.5039259353        1.8368301409
 H          4.3978883072       -1.8864071439       -2.1849071793
 H          5.8172828293       -2.8173593741       -1.7042682481
 H          6.0016335732       -0.7009028968       -0.6651865660
 H          5.6032428856       -1.8576722700        0.6166937432
 O          4.1039398731        0.7130103418       -0.5658433290
 C          3.1119627075        1.6774043702       -0.4076262698
 O          3.2566438614        2.6638132476       -1.1516916454
 O          1.1664605832       -0.0067622512        2.1395320780
 C          0.9892461328        2.4253602178        0.7958496115
 C         -0.2078818504        2.0205849206       -0.0264038784
 C         -0.1003381771        1.8281769383       -1.4005375044
 C         -1.1968024785        1.4210967163       -2.1380994101
 C         -2.4144422457        1.1852005708       -1.5228113492
 C         -2.5271470135        1.3576302749       -0.1498906671
 C         -1.4269806484        1.7790519566        0.5873997041
 H         -1.5158732990        1.9009658245        1.6580435506
 N         -3.7540567043        1.1115236453        0.4875985738
 S         -4.6172724415       -0.2642777957        0.0848884745
 O         -5.2476572916       -0.0776174866       -1.1977225041
 O         -5.5054024335       -0.4845878554        1.2032756059
 C         -3.4100468811       -1.5732168681       -0.0139697569
 C         -2.8137218896       -1.9954497758        1.1577835016
 C         -1.8601271003       -2.9980912674        1.1019024367
 C         -1.5163076851       -3.5548700597       -0.1206351183
 C         -2.1219880933       -3.1185322974       -1.2883712109
 C         -3.0791092867       -2.1176456557       -1.2378496264
 H         -3.5794923819       -1.7572918230       -2.1216689295
 H         -1.8518925316       -3.5542004591       -2.2368477590
 H         -0.7727292316       -4.3353342264       -0.1604215093
 H         -1.3854141779       -3.3365789735        2.0090515211
 H         -3.1094492416       -1.5481273193        2.0931140558
 H         -3.7257622340        1.2358543256        1.4890028485
 H         -3.2778128929        0.8722476714       -2.0866217613
 H         -1.1034518706        1.2827502547       -3.2046568277
 H          0.8529055109        2.0002733803       -1.8791225786
 H          0.7222934499        2.2784915067        1.8548651700
 C          1.3777239164        3.8853667389        0.6291591274
 C          0.8694308002        4.7597205002       -0.4735523041
 C          0.3706580887        4.9578342583        0.9244231550
 H          0.6881104414        5.8320976269        1.4721620850
 H         -0.6398016233        4.6433074548        1.1400236254
 H          1.5538055055        5.4820591998       -0.8913391258
 H          0.1939993174        4.3333509837       -1.1982973520
 H          2.3954263380        4.0729623984        0.9543923910
