  62
        -98.93914692
 C          2.1029446837        1.0288647418       -0.0965460196
 C          2.8903696874        0.5242749581        0.9696622025
 C          3.6049907887       -0.7423978949        0.7405392020
 C          3.4749247922       -1.3632320945       -0.4464389079
 C          4.0245212990       -2.6805282264       -0.9529789268
 C          5.1205022928       -3.4151072666       -0.1857120369
 C          6.4803677528       -2.7169180286       -0.1919267061
 H          7.1493884844       -3.2648620859        0.4749245163
 H          6.8946740569       -2.7761141418       -1.2014999118
 C          6.4677386338       -1.2454278424        0.2141269184
 H          5.8654066785       -0.6745913923       -0.4954707075
 H          7.4921127734       -0.8701701856        0.1421203299
 C          5.9683235789       -0.9623757555        1.6292306305
 H          6.1541037552        0.0943354454        1.8389014622
 H          6.5427054135       -1.5516360358        2.3465155637
 C          4.4717985428       -1.2250077235        1.8681863528
 H          4.2825180863       -2.2757561739        2.0744989362
 H          4.1658948713       -0.6578274605        2.7520535650
 H          5.2451840779       -4.3853361089       -0.6742362535
 H          4.7960454418       -3.6153497165        0.8311731672
 H          4.3682161053       -2.4887240146       -1.9746202939
 H          3.1566794602       -3.3440969102       -1.0413148685
 O          2.7032920625       -0.8421814167       -1.4437068360
 C          2.0018050390        0.3437312057       -1.3054463888
 O          1.3568923131        0.6556896240       -2.3278952327
 O          2.9900927265        1.1116818200        2.0796086944
 C          1.3377615348        2.3174005008        0.1647173942
 C         -0.0962169570        1.9732986225        0.4882342952
 C         -0.5645110266        2.0364494405        1.7957819780
 C         -1.8574184425        1.6494499766        2.1018707415
 C         -2.7043729165        1.1790668385        1.1139869794
 C         -2.2411963878        1.1021892207       -0.1925353382
 C         -0.9549072362        1.5149730064       -0.5013163772
 H         -0.5977950921        1.4281104275       -1.5167155312
 N         -3.0848217648        0.5736097274       -1.1971434367
 S         -3.4199410407       -1.0691971785       -1.0147189131
 O         -2.3487347111       -1.7536889472       -0.3247357245
 O         -3.7456083718       -1.5504537243       -2.3398200224
 C         -4.8937192251       -1.0822927826       -0.0150674642
 C         -4.8660651077       -1.6469894541        1.2449290610
 C         -6.0246085919       -1.6425018521        2.0063299240
 C         -7.1833376022       -1.0767414109        1.4965793170
 C         -7.1949309158       -0.5156652919        0.2280401737
 C         -6.0405369305       -0.5174291325       -0.5384820499
 H         -6.0056343708       -0.0987552408       -1.5303229251
 H         -8.0981430249       -0.0777205012       -0.1650748294
 H         -8.0829155604       -1.0740717839        2.0915861650
 H         -6.0171203684       -2.0784537243        2.9924123257
 H         -3.9397873205       -2.0701429261        1.5996625552
 H         -2.7091539525        0.7211405984       -2.1248288907
 H         -3.7090165151        0.8648839034        1.3459463014
 H         -2.2067221571        1.7064389635        3.1214532117
 H          0.1035620192        2.3702386875        2.5765011308
 H          1.7932734755        2.7435319789        1.0683888006
 C          1.4519295898        3.3309535878       -0.9550411836
 C          1.1377664767        4.7673948662       -0.6659358603
 C          2.5540124631        4.3450255840       -0.9134935074
 H          3.0252775859        4.6298287740       -1.8422216978
 H          3.2316749028        4.3124064177       -0.0729091459
 H          0.6336004798        5.3463612915       -1.4242281128
 H          0.8547966586        5.0220934684        0.3441004612
 H          1.1789237643        2.9396413162       -1.9262761634
