  62
        -98.94023142
 C          2.4437596904        0.9082371958       -0.0189047583
 C          2.6737610550       -0.4621167566        0.2521339353
 C          4.0528130623       -0.8138491360        0.6146224455
 C          4.9896908105        0.1482350113        0.6991292689
 C          6.4308890151       -0.0497374849        1.0839824968
 C          7.3342911107       -0.4805513679       -0.0795598396
 C          7.1444609913       -1.9230732729       -0.5499638722
 H          7.9799760645       -2.1563162175       -1.2129229669
 H          7.2106435193       -2.5949257246        0.3062888985
 C          5.8314594518       -2.1755468764       -1.3041976521
 H          6.0351915846       -2.7586603602       -2.2051677055
 H          5.4084203238       -1.2223132682       -1.6297120374
 C          4.7752777637       -2.9361770447       -0.5021786270
 H          5.1360674746       -3.9437776698       -0.2839119936
 H          3.8765281812       -3.0261652816       -1.1178108069
 C          4.3780961957       -2.2627993814        0.8181177102
 H          3.4781037728       -2.7534100330        1.1969216979
 H          5.1750240587       -2.3756738331        1.5527822044
 H          8.3688933200       -0.3616765186        0.2503208288
 H          7.1723441400        0.2006620674       -0.9180566057
 H          6.4976720484       -0.7823262161        1.8886826386
 H          6.7869767132        0.9125046290        1.4580736603
 O          4.7190542746        1.4591336749        0.4570771380
 C          3.4515022920        1.8674155475        0.0757448767
 O          3.3476494343        3.0931928882       -0.1358256732
 O          1.7783508502       -1.3449497099        0.1991858093
 C          1.0599643253        1.3745028028       -0.4297467839
 C          0.0412347591        1.0078913088        0.6224454659
 C          0.3236351679        1.2732130302        1.9603878521
 C         -0.5920313742        0.9710681466        2.9491017444
 C         -1.8177451552        0.4157599297        2.6254127064
 C         -2.1110453717        0.1500990498        1.2938359482
 C         -1.1836882006        0.4448107329        0.3033464652
 H         -1.4406904077        0.2281484501       -0.7197830057
 N         -3.3374650147       -0.4303776955        0.9317252527
 S         -4.0539418110        0.0501718699       -0.5197359033
 O         -3.4917726134       -0.7197303986       -1.6003869355
 O         -3.9836906443        1.4877899253       -0.6541933563
 C         -5.7384762344       -0.4615948188       -0.2321724166
 C         -6.0723354952       -1.7883903479       -0.4292276632
 C         -7.3729976622       -2.1959283672       -0.1791064035
 C         -8.3128828853       -1.2759080153        0.2616892528
 C         -7.9636843156        0.0524740142        0.4529026285
 C         -6.6641974926        0.4666265233        0.2058102939
 H         -6.3494042465        1.4900984973        0.3318971999
 H         -8.6974472075        0.7658553321        0.7920371461
 H         -9.3247190092       -1.5957816111        0.4544129925
 H         -7.6489585584       -3.2271596442       -0.3296166879
 H         -5.3108365164       -2.4648448643       -0.7810816504
 H         -4.0042694093       -0.4463784545        1.6912713756
 H         -2.5356656309        0.1836960914        3.3974163946
 H         -0.3542431107        1.1783415649        3.9818084898
 H          1.2770104378        1.7181609565        2.2133071960
 H          1.1092949588        2.4729102795       -0.4818543423
 C          0.7184867110        0.8398803952       -1.8052121968
 C         -0.2223117526        1.5916925171       -2.6964189112
 C          1.2410061051        1.5491088819       -3.0166933697
 H          1.5681110795        0.9589689284       -3.8595688114
 H          1.8266007521        2.4423179394       -2.8529859694
 H         -0.9071646774        1.0284444902       -3.3132888095
 H         -0.6369631353        2.5151110214       -2.3199025235
 H          0.6874577870       -0.2439622225       -1.8337481763
