  62
        -98.93081761
 C          1.7464074723        0.9712843918        0.2063916513
 C          3.0698508182        1.0902268801        0.6940494576
 C          3.9278294274       -0.1025546392        0.5952463552
 C          3.4262695243       -1.2308562998        0.0590458975
 C          4.0396412784       -2.6024772604       -0.1311281936
 C          5.5463476698       -2.8092540561       -0.0009058879
 C          6.3807034941       -2.1373150701       -1.0908430059
 H          7.4362335074       -2.2676608434       -0.8423642426
 H          6.1959592281       -2.6521535147       -2.0371084816
 C          6.1028251772       -0.6527029538       -1.3136014623
 H          5.0761426151       -0.5192065323       -1.6610637957
 H          6.7602340674       -0.3063678138       -2.1158650432
 C          6.3374997549        0.2460598221       -0.1009616690
 H          6.2588638431        1.2825798882       -0.4401786588
 H          7.3501069634        0.0951226341        0.2781074058
 C          5.3456080085        0.0636378923        1.0610249271
 H          5.6381399328       -0.7622367899        1.7049523746
 H          5.3645259673        0.9744262708        1.6665946569
 H          5.7194901793       -3.8866008783       -0.0712881264
 H          5.8858189875       -2.5001967551        0.9832512222
 H          3.7170649440       -2.9369221037       -1.1222371118
 H          3.5380146962       -3.2546537504        0.5922695285
 O          2.1390858705       -1.3013505246       -0.3875825304
 C          1.2751251155       -0.2165056464       -0.3467514174
 O          0.1493194811       -0.4539896896       -0.8173998513
 O          3.5171659386        2.1530449030        1.2039642944
 C          0.8482934708        2.1990665230        0.2858408607
 C         -0.4567000727        1.8381834271        0.9490722771
 C         -0.4109517033        1.6677661297        2.3346156412
 C         -1.5363033306        1.3250507783        3.0561289486
 C         -2.7501147124        1.1509784312        2.4144334584
 C         -2.8131956237        1.3138449598        1.0372389543
 C         -1.6728709103        1.6440425770        0.3127448895
 H         -1.7731041933        1.7136818915       -0.7537990074
 N         -4.0449269975        1.1990225348        0.3665502926
 S         -4.2527953694        0.1916099047       -0.9531458317
 O         -3.3271525837        0.5413785545       -1.9971683945
 O         -5.6581442183        0.3180500763       -1.2775005650
 C         -3.9500289036       -1.4490730404       -0.3220571834
 C         -2.6520109055       -1.8846549651       -0.1492384012
 C         -2.4433106593       -3.1395420387        0.4042260653
 C         -3.5219239139       -3.9276314938        0.7740567397
 C         -4.8194181713       -3.4720450133        0.5936179964
 C         -5.0373837431       -2.2193148900        0.0448029141
 H         -6.0273151396       -1.8251625204       -0.1195424820
 H         -5.6576670567       -4.0870215212        0.8791374401
 H         -3.3491007963       -4.9021514393        1.2031687921
 H         -1.4316368120       -3.4882495369        0.5406361046
 H         -1.8255953284       -1.2592135873       -0.4490374603
 H         -4.8338494456        1.0878736203        0.9881676661
 H         -3.6383315429        0.8967924152        2.9728759584
 H         -1.4710686307        1.1969621909        4.1259564214
 H          0.5340940010        1.8069860516        2.8421001530
 H          1.3750822674        2.8648350825        0.9897657918
 C          0.8770152214        2.9412857203       -1.0431690693
 C          0.1609882024        2.5473306960       -2.2981490311
 C         -0.2244994068        3.8056131325       -1.5764007657
 H          0.0451639955        4.7504188470       -2.0251941409
 H         -1.1632932726        3.8270696606       -1.0463605063
 H          0.7025857995        2.6418465687       -3.2294851760
 H         -0.4994822035        1.6948900468       -2.2839513234
 H          1.8839516143        3.3229599723       -1.2025978380
