  62
        -98.93814655
 C          2.1887093387        0.8317744890        0.0079623070
 C          2.8741782864        0.1345910050        1.0278656751
 C          3.6974675817       -1.0102823991        0.6014391390
 C          3.7236892186       -1.3448302573       -0.7006957899
 C          4.5334311143       -2.4336192679       -1.3487412521
 C          5.8689159515       -1.8779517449       -1.8720661789
 C          7.0066351900       -1.8675106997       -0.8518413974
 H          7.3324740590       -2.8933238398       -0.6672982697
 H          7.8450481377       -1.3342914759       -1.3057251378
 C          6.6763993909       -1.2109581207        0.4911948586
 H          6.1140329682       -0.2906464866        0.3231523759
 H          7.6179540993       -0.9312982232        0.9677701747
 C          5.8963985314       -2.1344551920        1.4388109128
 H          6.3926032550       -2.1570068268        2.4113070998
 H          5.9300776964       -3.1526601974        1.0515174782
 C          4.4372471428       -1.7292184724        1.6967748281
 H          3.8645240950       -2.6190525956        1.9802482695
 H          4.3946620168       -1.0477695408        2.5524783994
 H          5.6895851000       -0.8625770929       -2.2346113973
 H          6.1870786646       -2.4784036611       -2.7266563545
 H          3.9489008676       -2.7916865199       -2.1987474831
 H          4.6929760499       -3.2581995912       -0.6602900565
 O          3.0181674765       -0.6669541626       -1.6473208520
 C          2.2399945999        0.4328130247       -1.3276173320
 O          1.6559448728        0.9509423097       -2.2966920559
 O          2.8029680493        0.4545048006        2.2469928375
 C          1.3409436521        2.0348587866        0.3761040666
 C         -0.1033397828        1.7970255614        0.0073715854
 C         -0.8956509278        2.7453920752       -0.6255072834
 C         -2.2194359186        2.4685060140       -0.9216164622
 C         -2.7820322419        1.2496515409       -0.5924018147
 C         -2.0033716530        0.2984717491        0.0543633255
 C         -0.6796008503        0.5802868535        0.3527077912
 H         -0.0752190565       -0.1623284073        0.8605561764
 N         -2.5665286340       -0.9468925489        0.3898287809
 S         -3.9817208072       -0.9429997411        1.2969696254
 O         -4.0708468397        0.2345635442        2.1292414197
 O         -3.9955652917       -2.2171701055        1.9822468656
 C         -5.2770251568       -0.9273131552        0.0758539435
 C         -5.3134030082       -1.9533424988       -0.8479796707
 C         -6.3204165385       -1.9607215540       -1.7998320283
 C         -7.2697112303       -0.9494211530       -1.8100062122
 C         -7.2211552044        0.0718371724       -0.8735476437
 C         -6.2159682424        0.0855686635        0.0810206827
 H         -6.1350602582        0.8609511198        0.8260117850
 H         -7.9602597379        0.8566898608       -0.8830364354
 H         -8.0522318778       -0.9579125012       -2.5522105272
 H         -6.3615064789       -2.7533312968       -2.5295249109
 H         -4.5593307404       -2.7214402536       -0.8029644545
 H         -1.9011059644       -1.5951463019        0.7859597865
 H         -3.8098626617        1.0280706396       -0.8287369120
 H         -2.8205840557        3.2130361671       -1.4206586543
 H         -0.4761183717        3.7015112283       -0.8914876305
 H          1.4002287876        2.1098959959        1.4728017939
 C          1.9230817399        3.2951696124       -0.2291675770
 C          1.7461560132        4.6157193493        0.4570296667
 C          3.0882571633        3.9497055423        0.4485560531
 H          3.8716114569        4.3705073590       -0.1637675623
 H          3.4443584784        3.5013860404        1.3648590746
 H          1.6104437629        5.4983785274       -0.1494964041
 H          1.1927366094        4.6271270985        1.3839515062
 H          1.9221572938        3.2737608829       -1.3131449808
