  62
        -98.94083292
 C         -1.9523779258       -1.2541788933        0.5135005494
 C         -1.9350327544        0.0580512362        1.0564489945
 C         -3.0689671765        0.9262556156        0.7154558017
 C         -4.0614549191        0.4348183974       -0.0479088494
 C         -5.2765860511        1.2027892459       -0.4797403179
 C         -5.0578926985        1.8840372565       -1.8373367633
 C         -3.7537037963        2.6763058069       -1.9250560620
 H         -2.9116343056        1.9818261832       -1.8731483865
 H         -3.7220510485        3.1436641320       -2.9117602338
 C         -3.5911725240        3.7532526738       -0.8430955641
 H         -3.2247298601        4.6679589938       -1.3138961867
 H         -4.5606107611        3.9834859682       -0.3999620992
 C         -2.5972708355        3.3930933719        0.2627116716
 H         -2.3787564603        4.3007804269        0.8314785366
 H         -1.6627080952        3.0577161879       -0.1946610288
 C         -3.0629162201        2.3261808379        1.2624263377
 H         -2.3566118205        2.3171912660        2.0978725790
 H         -4.0481223484        2.5931086208        1.6502336950
 H         -5.9030719262        2.5470886855       -2.0313045421
 H         -5.0445268165        1.1152432231       -2.6134525355
 H         -5.5159599320        1.9468759324        0.2776387028
 H         -6.1105612477        0.5038817645       -0.5648516338
 O         -4.0471225099       -0.8238975977       -0.5494273624
 C         -2.9845122500       -1.6890505556       -0.3183885495
 O         -3.1036605190       -2.7812734946       -0.9071234632
 O         -1.0121468224        0.4783673406        1.8030272674
 C         -0.7704946268       -2.1386348375        0.8729076860
 C          0.3255042687       -2.0191023979       -0.1595439052
 C          0.0738106496       -2.2630307020       -1.5054604180
 C          1.0792037127       -2.1230239819       -2.4450678696
 C          2.3553528451       -1.7472482977       -2.0625469967
 C          2.6186976347       -1.5088034330       -0.7209154512
 C          1.6063725776       -1.6454604635        0.2214920302
 H          1.8136367408       -1.4398526655        1.2630338877
 N          3.9246783933       -1.1302414302       -0.3393977025
 S          4.4390085425        0.4043956952       -0.7750911726
 O          4.0966079213        0.6321328059       -2.1547541332
 O          5.8421330185        0.4650288939       -0.4374158997
 C          3.5247366499        1.5046999125        0.2907471575
 C          4.1683967423        2.0911533238        1.3626479489
 C          3.4375358380        2.8892353167        2.2278549950
 C          2.0790808081        3.0698046874        2.0170989900
 C          1.4462950897        2.4694854221        0.9395037542
 C          2.1739972708        1.6813140412        0.0626272016
 H          1.7108219988        1.2018177237       -0.7856690309
 H          0.3845170058        2.5867367861        0.7973113298
 H          1.5037671123        3.6774924227        2.6975033073
 H          3.9254740149        3.3597291394        3.0664289512
 H          5.2241374276        1.9142809002        1.4912761923
 H          4.1118530966       -1.2705830425        0.6440524100
 H          3.1444802837       -1.6185664252       -2.7849153829
 H          0.8679573384       -2.3107200472       -3.4871218082
 H         -0.9200692034       -2.5569859851       -1.8080186098
 H         -0.3825792517       -1.7295215617        1.8159327145
 C         -1.1274598700       -3.5946474100        1.0959446059
 C         -0.2358511899       -4.4377732557        1.9554444350
 C         -1.5935236686       -4.0378643485        2.4486707241
 H         -2.3678233945       -4.7879765570        2.5044784550
 H         -1.6540363379       -3.2908518562        3.2267992761
 H         -0.0730734430       -5.4663233794        1.6727244897
 H          0.6247749551       -3.9644814264        2.4034075725
 H         -1.5862578494       -4.0627171454        0.2353108328
