  62
        -98.94503296
 C         -2.5520289873       -0.1269337033        0.4299977927
 C         -2.3807953976        0.5456931484       -0.8036670322
 C         -2.1687315127        1.9968849246       -0.7179718914
 C         -2.1514282867        2.5913564032        0.4885512296
 C         -1.9458418725        4.0604667874        0.7191566015
 C         -0.4693103255        4.4066420790        0.9492963008
 C          0.4824562983        3.8285835657       -0.0983417407
 H          1.4810286035        4.2060787252        0.1349346718
 H          0.5263342697        2.7422527460        0.0104367061
 C          0.1317263416        4.1835996800       -1.5497868837
 H          1.0527065973        4.4514719331       -2.0717943840
 H         -0.5204597719        5.0579006731       -1.5721067155
 C         -0.5129483098        3.0452567710       -2.3434394078
 H          0.0662628704        2.1293636203       -2.1976572898
 H         -0.4678821850        3.3011818359       -3.4056208377
 C         -1.9790388190        2.7437518927       -2.0076232097
 H         -2.5571343786        3.6704435756       -2.0084613412
 H         -2.3742842959        2.0896370211       -2.7904081401
 H         -0.1703915038        4.0208555227        1.9270240217
 H         -0.3741628823        5.4945596562        0.9687747921
 H         -2.5166708238        4.3477747954        1.6044153593
 H         -2.3272091213        4.6094991596       -0.1399585129
 O         -2.3132570763        1.9103449348        1.6534243279
 C         -2.4918245472        0.5366605703        1.6533505574
 O         -2.5964058740        0.0304082463        2.7915627109
 O         -2.4158802384       -0.0346322486       -1.9207520886
 C         -2.7436041860       -1.6317842993        0.4457453253
 C         -1.5909643880       -2.3151349932       -0.2515646834
 C         -1.7408098104       -3.4606722747       -1.0225824968
 C         -0.6391553654       -4.0483189645       -1.6211251520
 C          0.6244636348       -3.5087887997       -1.4718043360
 C          0.7841652048       -2.3583011125       -0.7050643202
 C         -0.3162970915       -1.7889399886       -0.0881333909
 H         -0.1819747375       -0.9078606414        0.5225763255
 N          2.0455074240       -1.7522688608       -0.5859707553
 S          2.3411364567       -0.5956537020        0.5966617704
 O          2.0964492269       -1.1424243645        1.9148905443
 O          1.6335619871        0.6123174895        0.2578530416
 C          4.0916163284       -0.3610911861        0.3551685172
 C          4.5187879625        0.5437074077       -0.5978314296
 C          5.8793479021        0.7026271773       -0.8087261155
 C          6.7850023753       -0.0427507296       -0.0685503284
 C          6.3417246134       -0.9452161313        0.8866402890
 C          4.9824196657       -1.1087325565        1.1022351642
 H          4.5916802826       -1.7887557932        1.8421457661
 H          7.0479982265       -1.5203167144        1.4633864965
 H          7.8431763937        0.0830944840       -0.2346366832
 H          6.2272845312        1.4062864849       -1.5475943586
 H          3.7773137101        1.1055882301       -1.1418632382
 H          2.8203092840       -2.3862532984       -0.7180190295
 H          1.4792361703       -3.9616678313       -1.9498165501
 H         -0.7684188403       -4.9391996942       -2.2168877549
 H         -2.7196426345       -3.8914344294       -1.1568210228
 H         -2.7241946357       -1.9304717627        1.5054634671
 C         -4.0937551910       -1.9950582129       -0.1397381898
 C         -4.8524304269       -3.1802656646        0.3751267783
 C         -5.3194931501       -1.7937434684        0.6979620120
 H         -6.2151408115       -1.4236439454        0.2222824780
 H         -5.1732825002       -1.4229205516        1.7024950284
 H         -5.4332216081       -3.7637459202       -0.3233118153
 H         -4.4013352325       -3.7574333598        1.1682953576
 H         -4.1628699603       -1.7578056228       -1.1951870431
