  62
        -98.94074947
 C         -2.5368687447       -0.3080521209        0.1881943093
 C         -2.5217438107        0.7988650692        1.0727776407
 C         -2.3911675199        2.1253360945        0.4585318766
 C         -2.2808874563        2.2210030644       -0.8783964868
 C         -2.1288838633        3.5059931658       -1.6390663327
 C         -0.6537264123        3.8557205090       -1.8734309441
 C          0.2135280391        3.7826452375       -0.6162075039
 H          0.3077380515        2.7399089462       -0.3019365434
 H          1.2160494616        4.1136919267       -0.8976534480
 C         -0.2890598370        4.6338646210        0.5581387371
 H          0.5659358571        5.1461059214        1.0046015471
 H         -0.9742500216        5.4009495491        0.1943267195
 C         -0.9637600251        3.8420943680        1.6803906872
 H         -1.0415198980        4.4918916092        2.5566559578
 H         -0.3314278164        2.9931082390        1.9570515160
 C         -2.3721210271        3.3155873500        1.3748753993
 H         -2.8137796498        2.9766348527        2.3167252175
 H         -2.9896819343        4.1232659177        0.9759837738
 H         -0.6034989970        4.8622346012       -2.2941376681
 H         -0.2439867553        3.1567589591       -2.6059879737
 H         -2.6190344666        4.3054909432       -1.0865003813
 H         -2.6217219230        3.3894235380       -2.6061473038
 O         -2.2730140340        1.1385597166       -1.6951952090
 C         -2.3512532723       -0.1508244207       -1.1864671562
 O         -2.2584643977       -1.0381512453       -2.0552351822
 O         -2.6151992964        0.6806509415        2.3261605940
 C         -2.5878777781       -1.6971791856        0.8002323756
 C         -1.4272874072       -2.5127896445        0.2852216199
 C         -1.5312735177       -3.8048768225       -0.2088913114
 C         -0.4020632642       -4.4716582557       -0.6561601127
 C          0.8397977344       -3.8667241490       -0.6345475900
 C          0.9520031764       -2.5653808834       -0.1516012654
 C         -0.1716477221       -1.9176292941        0.3270510478
 H         -0.0764642729       -0.9162930560        0.7225613963
 N          2.1872522847       -1.8976443558       -0.1853516536
 S          2.3931258715       -0.3903378355        0.5209086406
 O          2.2125389957       -0.4649480493        1.9561873406
 O          1.5812688846        0.5713920175       -0.1801200111
 C          4.1145824930       -0.1214364109        0.1456278232
 C          5.0745648215       -0.4440332068        1.0860569624
 C          6.4116140276       -0.2592616091        0.7707201639
 C          6.7643184010        0.2402463316       -0.4739075918
 C          5.7896289247        0.5614581778       -1.4070782011
 C          4.4511414437        0.3792703188       -1.0975765159
 H          3.6575970249        0.6217563578       -1.7855332893
 H          6.0667483612        0.9527636530       -2.3726275177
 H          7.8051910154        0.3833658741       -0.7173746857
 H          7.1711265020       -0.5044778579        1.4954178221
 H          4.7523102883       -0.8185961094        2.0443003096
 H          2.9925180982       -2.4988100916       -0.0927450769
 H          1.7136449084       -4.3835126783       -0.9995963588
 H         -0.4946385098       -5.4776925138       -1.0366383938
 H         -2.4943553785       -4.2854912458       -0.2607459051
 H         -2.4126781181       -1.5197781489        1.8762359671
 C         -3.9318854435       -2.4014325247        0.6960995496
 C         -5.1953821119       -1.6298835477        0.4615208822
 C         -4.6685139371       -2.5449714123       -0.6007610589
 H         -5.1982316401       -3.4678045276       -0.7873463274
 H         -4.2175426079       -2.1106688133       -1.4784554612
 H         -6.0825123137       -1.9213255933        1.0037406034
 H         -5.1074397406       -0.5640577054        0.3058092556
 H         -4.0057369960       -3.2338774587        1.3895377131
