  62
        -98.93931967
 C         -2.5475104505       -1.1638936406       -0.2608732669
 C         -2.1326648856       -0.0207874244       -0.9882256521
 C         -3.0698562193        1.1147171811       -0.9850492079
 C         -4.2386667948        1.0098543783       -0.3281752890
 C         -5.2482960715        2.1111666511       -0.1871037491
 C         -4.9885774245        2.9391349976        1.0793876041
 C         -3.5356398249        3.3879919058        1.2381231949
 H         -3.4782006819        3.9872514410        2.1493695166
 H         -2.9026748261        2.5103640353        1.3911900617
 C         -2.9901528526        4.2021071318        0.0565918092
 H         -3.8171507231        4.5857677998       -0.5421084498
 H         -2.4438321212        5.0634101465        0.4465762129
 C         -2.0238140416        3.4376585726       -0.8506957079
 H         -1.2344729972        2.9756600059       -0.2506114882
 H         -1.5416257214        4.1574893291       -1.5179818516
 C         -2.6546480005        2.3513693967       -1.7309977570
 H         -1.8949582124        2.0272553105       -2.4487656280
 H         -3.4974520909        2.7692201095       -2.2858277634
 H         -5.2558743627        2.3343418507        1.9488265023
 H         -5.6404904397        3.8142039223        1.0594737815
 H         -5.2068238293        2.7497802263       -1.0670987988
 H         -6.2403632172        1.6619006923       -0.1199919189
 O         -4.6131189872       -0.1126497183        0.3366925360
 C         -3.7751021136       -1.2116008057        0.4045246091
 O         -4.2325517424       -2.1612032719        1.0720855531
 O         -1.0463390394        0.0618746829       -1.6192178767
 C         -1.6573708194       -2.3901023865       -0.1184086031
 C         -0.5511581893       -2.0518183028        0.8527508102
 C         -0.8129450424       -2.1437783994        2.2180212746
 C          0.1519720090       -1.8039717268        3.1462084919
 C          1.3941222655       -1.3578201627        2.7305201930
 C          1.6653957907       -1.2596834489        1.3708097905
 C          0.6968948845       -1.6108981066        0.4390344263
 H          0.9206139463       -1.5028560607       -0.6089392652
 N          2.9348692451       -0.8394849456        0.9316644141
 S          3.0215154956        0.2502685379       -0.3605398033
 O          2.1611154100        1.3839173191       -0.1082103973
 O          2.8311665521       -0.4673127983       -1.5938893894
 C          4.7326676061        0.7395080572       -0.2229506846
 C          5.0552464147        1.9416364325        0.3771524269
 C          6.3905149004        2.2926696732        0.5019985864
 C          7.3755657609        1.4384436869        0.0301363709
 C          7.0366438270        0.2351028569       -0.5709046122
 C          5.7036426931       -0.1207186425       -0.6998562182
 H          5.3914027804       -1.0400689623       -1.1669251900
 H          7.8050821279       -0.4251894574       -0.9392887886
 H          8.4137558092        1.7135364624        0.1287217382
 H          6.6563183942        3.2290861167        0.9655223811
 H          4.2549150195        2.5769486128        0.7215311947
 H          3.5050767994       -0.5043271698        1.6979344612
 H          2.1491923318       -1.0877503841        3.4535868034
 H         -0.0649703705       -1.8809677627        4.2010320987
 H         -1.7918840548       -2.4737247848        2.5376754845
 H         -2.2871146899       -3.1595325522        0.3496519554
 C         -1.1639140668       -2.9190484863       -1.4474802996
 C         -0.6313861554       -4.3176893900       -1.5179725422
 C         -1.9512388697       -3.9855278150       -2.1450957657
 H         -2.0187933408       -3.9527895440       -3.2221884696
 H         -2.8501924206       -4.3397621775       -1.6615062494
 H          0.2113529779       -4.5143417357       -2.1628502765
 H         -0.6353806568       -4.8980579735       -0.6075260527
 H         -0.6935035427       -2.1666506758       -2.0676000187
