  62
        -98.93864621
 C         -2.8142673256       -0.0274535473        0.1287139014
 C         -2.1303237129       -0.7787242071        1.1156561767
 C         -1.8711536855       -2.1889183064        0.7864773472
 C         -2.2878908953       -2.6866207166       -0.3902439177
 C         -2.0680192866       -4.0963228018       -0.8560144457
 C         -0.7849892923       -4.2317090917       -1.6865453362
 C          0.4531273484       -3.6101344177       -1.0393218206
 H          1.3017279214       -3.8348206216       -1.6903788118
 H          0.3517462802       -2.5218438607       -1.0247316067
 C          0.7553384163       -4.1100806433        0.3802382385
 H          1.8289520439       -4.2944308311        0.4598547828
 H          0.2491703291       -5.0602054147        0.5568250268
 C          0.3865143668       -3.1201862222        1.4874155334
 H          0.8894717184       -3.4300630457        2.4075646366
 H          0.7589612775       -2.1276248369        1.2187316103
 C         -1.1112081946       -2.9989853800        1.7985024086
 H         -1.5487642882       -3.9929930125        1.9107837632
 H         -1.2156670352       -2.4667395736        2.7485281029
 H         -0.6070014482       -5.2939692551       -1.8673685280
 H         -0.9429191158       -3.7444082974       -2.6516599813
 H         -2.9193204054       -4.3864686142       -1.4747906676
 H         -2.0219244890       -4.7532986457        0.0106039760
 O         -2.9537441102       -1.9408477624       -1.3093588364
 C         -3.2000631067       -0.5979869903       -1.0875767537
 O         -3.7832145158       -0.0235526160       -2.0299639543
 O         -1.7474235393       -0.3175575912        2.2235200378
 C         -3.1022551939        1.4621989574        0.2644132340
 C         -1.8958961676        2.2201366803       -0.2279139401
 C         -1.9764381893        3.1476265349       -1.2587924309
 C         -0.8315813991        3.7425875838       -1.7636905558
 C          0.4163456470        3.4107910625       -1.2654708029
 C          0.5012015928        2.4955441117       -0.2263794334
 C         -0.6450444165        1.9237962537        0.2964201147
 H         -0.5648634401        1.2074180906        1.1007349617
 N          1.7808176526        2.0742127231        0.2388161913
 S          2.3248865376        0.8333549332       -0.7877178809
 O          2.5781168569        1.4198495865       -2.0800640962
 O          1.3994450845       -0.2782112876       -0.7625353975
 C          3.8665367247        0.3756898973       -0.0187472694
 C          4.9069116792        1.2845862905       -0.0520545321
 C          6.1025452725        0.9545676949        0.5651470739
 C          6.2366836854       -0.2711680596        1.2010083828
 C          5.1836711783       -1.1727308521        1.2243317775
 C          3.9837257999       -0.8480226549        0.6104354331
 H          3.1389256246       -1.5186315331        0.6012174526
 H          5.2899199654       -2.1254248841        1.7176906661
 H          7.1684982794       -0.5262591011        1.6805393860
 H          6.9244184133        1.6519360584        0.5485889797
 H          4.7578042902        2.2206534121       -0.5635938952
 H          1.6928641665        1.6657659931        1.1631712135
 H          1.3189374761        3.8263975279       -1.6823510495
 H         -0.9112034919        4.4552056957       -2.5706494552
 H         -2.9412543722        3.3781941467       -1.6870942865
 H         -3.9309906343        1.6631079283       -0.4322651505
 C         -3.5612567488        1.8675245968        1.6579024697
 C         -2.7844758922        2.7874022429        2.5475454876
 C         -4.0445368221        3.2676445724        1.8973045924
 H         -4.9226496948        3.4158412655        2.5070727026
 H         -3.9481588450        3.9686169388        1.0816335558
 H         -2.7906620641        2.5791437690        3.6065533099
 H         -1.8459441838        3.1781878098        2.1866602004
 H         -4.1093880238        1.0728379016        2.1523783903
