  62
        -98.93748974
 C         -2.2542656438       -0.9370151346        0.4144082480
 C         -2.4882303206       -0.0255894596       -0.6421936779
 C         -3.3310845703        1.1400912852       -0.3204649502
 C         -3.7919749604        1.2977056203        0.9320439052
 C         -4.6254684404        2.4238707797        1.4911855371
 C         -5.7914122379        2.9355490412        0.6340315827
 C         -6.4791739642        1.8689332873       -0.2305526207
 H         -6.1460079991        0.8732820701        0.0673946248
 H         -7.5564826236        1.9158261301       -0.0608652080
 C         -6.2306103843        2.0637094111       -1.7282617280
 H         -7.0086467386        1.5353310662       -2.2844044617
 H         -6.3256131226        3.1260463969       -1.9633707459
 C         -4.8837378808        1.5559595701       -2.2418148111
 H         -4.8679306084        0.4629395156       -2.2218738105
 H         -4.7866199933        1.8584067273       -3.2871732847
 C         -3.6506001876        2.0525738623       -1.4694552893
 H         -2.7895982764        2.0009313962       -2.1414380612
 H         -3.7768358528        3.0824043923       -1.1444789365
 H         -5.4440860301        3.7432037966       -0.0087223027
 H         -6.5185371139        3.3719479612        1.3209276078
 H         -5.0086047574        2.0472593017        2.4427395671
 H         -3.9577188488        3.2591913552        1.7220974244
 O         -3.5078596915        0.4112502003        1.9299936271
 C         -2.7447347832       -0.7204482860        1.6998007144
 O         -2.5689116827       -1.4375465021        2.7073801169
 H          0.1258286780       -0.3093462431        1.2664671147
 C          0.6347757730       -0.7892787118        0.4383304250
 C         -0.0222628679       -1.7904200430       -0.2668322050
 C          0.6487364040       -2.4101440083       -1.3125084606
 C          1.9328347470       -2.0184911477       -1.6508444415
 C          2.5745665524       -1.0087498956       -0.9583838214
 C          1.9183633646       -0.3912326288        0.0987101601
 N          2.5579581611        0.6435663458        0.8045912278
 S          4.1048730924        0.3592119740        1.3940704514
 O          4.3107454211       -1.0407244505        1.6858921382
 O          4.2612907268        1.2761916695        2.5022546493
 C          5.1720624153        0.8706994133        0.0639582684
 C          6.1308709480        0.0038470503       -0.4226647764
 C          6.9582680756        0.4291486389       -1.4505329986
 C          6.8134281801        1.7065931680       -1.9696061358
 C          5.8468934410        2.5657232489       -1.4678384930
 C          5.0175976398        2.1475431314       -0.4394844711
 H          4.2564530206        2.7843247077       -0.0201680541
 H          5.7366157804        3.5582716321       -1.8741282440
 H          7.4574549340        2.0351046402       -2.7699785645
 H          7.7103169917       -0.2369128396       -1.8417939934
 H          6.2021498023       -0.9823053630        0.0076900297
 H          1.9802488065        1.0618831930        1.5193838756
 H          3.5715141848       -0.6970282703       -1.2235254172
 H          2.4396708772       -2.5047845287       -2.4702488764
 H          0.1654572155       -3.1982582820       -1.8659059081
 C         -1.4146781486       -2.1775042062        0.1720005105
 H         -1.3305329896       -2.6819691085        1.1465594016
 C         -2.1196917347       -3.1039982817       -0.7969724125
 C         -1.9222383554       -4.5863783581       -0.7060725298
 C         -3.2245416375       -3.9765635157       -0.2847344268
 H         -4.0933247000       -4.1291817016       -0.9073479624
 H         -3.4489864307       -3.9228262172        0.7711144197
 H         -1.9001795952       -5.1613490170       -1.6195024088
 H         -1.2645140671       -4.9572563443        0.0656271886
 H         -2.2459586234       -2.6607062116       -1.7778779766
 O         -2.0114535198       -0.1686236601       -1.7968761761
