  62
        -98.94400985
 C         -1.7649339917       -1.2099641042        0.4191553883
 C         -1.8848270178       -0.2859763482       -0.6466871026
 C         -3.2553739667       -0.0231440135       -1.1118689941
 C         -4.2837751856       -0.6771905519       -0.5417215187
 C         -5.7300281156       -0.4689258895       -0.8844137021
 C         -6.3631186058        0.6049715443        0.0112285586
 C         -5.5451627445        1.8933206937        0.1016555476
 H         -6.1024180231        2.5892988170        0.7324699025
 H         -4.6016024013        1.6835470742        0.6109293124
 C         -5.2509523160        2.5544209185       -1.2521585636
 H         -5.9372553230        2.1719334315       -2.0085304541
 H         -5.4311506052        3.6279104522       -1.1641189277
 C         -3.8115980630        2.3845044071       -1.7427548428
 H         -3.1157068878        2.6791359090       -0.9524538611
 H         -3.6561177769        3.0666015155       -2.5831330479
 C         -3.4290309461        0.9774659765       -2.2194444937
 H         -4.1600573005        0.6246624006       -2.9499080038
 H         -2.4553235756        1.0494855590       -2.7132570436
 H         -7.3597482873        0.8310341062       -0.3720665379
 H         -6.4707258165        0.1965700864        1.0187144621
 H         -5.8124473425       -0.1799029662       -1.9302161322
 H         -6.2581375215       -1.4119549304       -0.7340905545
 O         -4.1245231889       -1.5801522773        0.4592853161
 C         -2.8694289489       -1.8534965254        0.9775783576
 O         -2.8674369800       -2.6742080574        1.9172321180
 H          2.0914710193       -0.4320384397        0.5157548619
 C          1.5032173279        0.1479402107        1.2049491822
 C          0.2265202501       -0.2645632657        1.5499731896
 C         -0.4986388653        0.5034705231        2.4583301066
 C          0.0389238586        1.6555039727        2.9972666398
 C          1.3089445843        2.0721081336        2.6355705591
 C          2.0420262217        1.3145161898        1.7324000632
 N          3.3477213748        1.6863414548        1.3646374310
 S          3.7177760109        1.8138236374       -0.2702697266
 O          4.9280206241        2.6095760250       -0.2960922627
 O          2.6050548152        2.3334285572       -1.0289728077
 C          4.1163872142        0.1575659568       -0.7831607719
 C          3.3963737417       -0.4337850438       -1.8023606959
 C          3.7408437156       -1.7140648444       -2.2071830945
 C          4.7919427824       -2.3750063841       -1.5889467440
 C          5.5043872244       -1.7657805236       -0.5665975830
 C          5.1676420663       -0.4850136668       -0.1591525853
 H          5.6998052781        0.0273546883        0.6246916997
 H          6.3188729876       -2.2852147642       -0.0881202893
 H          5.0547335751       -3.3721718234       -1.9060928918
 H          3.1842444926       -2.1904885860       -2.9987857584
 H          2.5752864907        0.1110032586       -2.2424506088
 H          3.6975350552        2.4961217352        1.8581752820
 H          1.7278794837        2.9770630838        3.0497694071
 H         -0.5359885616        2.2397289132        3.7003261129
 H         -1.4931771921        0.1804448285        2.7364457770
 C         -0.3988218938       -1.5248464065        1.0024342081
 H         -0.5829838262       -2.2036147268        1.8481829529
 C          0.4647938804       -2.2397970382       -0.0150495114
 C          1.5508702149       -3.1644932277        0.4439566012
 C          0.3093339708       -3.7198597358       -0.1850617722
 H          0.3732109103       -4.1331302142       -1.1802174354
 H         -0.4101549901       -4.2183228712        0.4484411872
 H          1.6780051697       -3.2918118913        1.5082696932
 H          2.4715127529       -3.1972156761       -0.1186634923
 H          0.6354391835       -1.6488271890       -0.9075590933
 O         -0.9022134838        0.2880301576       -1.1849642708
