  62
        -98.94334005
 C         -1.9787476062       -0.8560916103        0.0339396335
 C         -2.2461343632        0.1102000877        1.0307303382
 C         -2.3927045530        1.4940236326        0.5642656863
 C         -2.2328151584        1.7659592703       -0.7440214391
 C         -2.3818879099        3.1264060431       -1.3603335679
 C         -3.8230209825        3.3749653564       -1.8270975437
 C         -4.8780562585        3.0483753755       -0.7702743988
 H         -5.8532751269        3.2891237367       -1.1985912393
 H         -4.8664699375        1.9732812657       -0.5774388065
 C         -4.7016981806        3.8015967322        0.5554969271
 H         -5.6743190776        4.1807849137        0.8756607940
 H         -4.0494010405        4.6630042643        0.4083521074
 C         -4.1583644898        2.9470355687        1.7021121667
 H         -4.2768157656        3.5093366350        2.6321410828
 H         -4.7527347892        2.0344570135        1.7930135404
 C         -2.6806530133        2.5484092558        1.5960401495
 H         -2.0686788501        3.4357375064        1.4183136223
 H         -2.3808421086        2.1155836163        2.5554717804
 H         -4.0132285250        2.7536888174       -2.7051265226
 H         -3.9132827302        4.4214132063       -2.1238342278
 H         -2.0867773888        3.8802365036       -0.6327689538
 H         -1.7111680470        3.1852954425       -2.2192447444
 O         -1.9616747278        0.8140144598       -1.6720667792
 C         -1.8134365156       -0.5149901038       -1.3085492997
 O         -1.5502757265       -1.2810740214       -2.2556464686
 H          0.4600866921       -0.8074083929        0.4776258683
 C          0.6728313057       -1.8207558771        0.1688582649
 C         -0.3616716728       -2.7444494340        0.0892489033
 C         -0.0573367988       -4.0469139478       -0.2856954581
 C          1.2472610639       -4.4021441296       -0.5844615617
 C          2.2682753015       -3.4725332217       -0.5289307532
 C          1.9727542731       -2.1632774502       -0.1601363008
 N          2.9792730941       -1.1838766701       -0.1601890005
 S          2.7200497855        0.3606370706        0.4392811472
 O          2.4320676625        0.3244878457        1.8579698056
 O          1.7570852552        1.0350962405       -0.3959417175
 C          4.3395327721        1.0549399192        0.1677835222
 C          5.1835426945        1.2804800831        1.2380960827
 C          6.4453205554        1.8028570462        0.9986996527
 C          6.8399281933        2.0867653207       -0.2997798677
 C          5.9810721238        1.8559920390       -1.3645938537
 C          4.7182265193        1.3355552846       -1.1318430230
 H          4.0128895914        1.1475524432       -1.9248940321
 H          6.2899015671        2.0797960212       -2.3729473784
 H          7.8219398630        2.4929116197       -0.4837395594
 H          7.1135258961        1.9862305101        1.8245345121
 H          4.8298270130        1.0486535671        2.2297789702
 H          3.9046613476       -1.5363826086        0.0358763755
 H          3.2814288179       -3.7475819161       -0.7771392647
 H          1.4703186222       -5.4186427957       -0.8710700089
 H         -0.8421771244       -4.7832018084       -0.3457578551
 C         -1.7601247522       -2.2986713679        0.4463256557
 H         -1.8493486222       -2.3059055581        1.5442442991
 C         -2.8360895844       -3.1927278277       -0.1366846530
 C         -3.3315030816       -4.3857940681        0.6233850310
 C         -4.2015871545       -3.1746441717        0.4805239593
 H         -5.0623160994       -3.2268636524       -0.1690326812
 H         -4.3436192092       -2.5406970171        1.3439205640
 H         -2.8937740672       -4.5801310609        1.5909806846
 H         -3.5990784744       -5.2736974302        0.0706188217
 H         -2.7752338868       -3.2591907953       -1.2171631838
 O         -2.3531336222       -0.1733007049        2.2569816989
