  62
        -98.94166229
 C          2.0593494458        1.5197307638        0.0549229566
 C          2.3352019355        0.5981587835       -0.9852313776
 C          3.6688298616       -0.0253992808       -0.9542609828
 C          4.5310159791        0.2915369346        0.0274502109
 C          5.8930540215       -0.3124673418        0.2060968575
 C          5.8391044595       -1.5481278177        1.1152425211
 C          4.7522053888       -2.5517272898        0.7298051615
 H          4.8292175805       -3.3955535086        1.4189916605
 H          3.7721946665       -2.0960905110        0.8908662158
 C          4.8429847017       -3.0621516708       -0.7151712286
 H          5.8395930975       -2.8699110123       -1.1141540500
 H          4.6978923593       -4.1446004954       -0.7135503133
 C          3.7958156231       -2.4742510928       -1.6628629598
 H          2.8020075926       -2.5839598602       -1.2208521720
 H          3.8081895770       -3.0585878200       -2.5869302630
 C          3.9949218379       -1.0029117318       -2.0487532510
 H          5.0146503359       -0.8526268595       -2.4086341831
 H          3.3046488301       -0.7787690825       -2.8673387595
 H          6.8141948208       -2.0379980502        1.0903564866
 H          5.6509348851       -1.2171685462        2.1392357101
 H          6.2961120288       -0.5824986433       -0.7680910461
 H          6.5429289047        0.4354889853        0.6634671074
 O          4.2330789302        1.1793136105        1.0095217203
 C          3.0000196267        1.8060276525        1.0496984257
 O          2.8618675266        2.5968821084        2.0041665728
 H         -0.0547272718       -0.2379725503       -0.4223050025
 C         -0.5956635368        0.1632596063        0.4218773599
 C         -0.3078207595        1.4474124892        0.8645515340
 C         -1.0225269388        1.9541555505        1.9433329943
 C         -1.9939941056        1.1899267005        2.5670349624
 C         -2.2753105220       -0.0902912140        2.1255710000
 C         -1.5691778670       -0.6040644537        1.0449614893
 N         -1.8559295572       -1.8992500793        0.5768622405
 S         -3.4672205465       -2.2781923146        0.3212878443
 O         -4.0870179417       -2.6101427285        1.5801257990
 O         -3.4622344138       -3.3242595736       -0.6762465926
 C         -4.1890511160       -0.7846793991       -0.3344261539
 C         -3.7548287854       -0.3438728425       -1.5690502932
 C         -4.2640986067        0.8411110462       -2.0749025651
 C         -5.1902008368        1.5639269780       -1.3385068380
 C         -5.6194577976        1.1056247879       -0.1028161761
 C         -5.1144997819       -0.0796163145        0.4076856130
 H         -5.4209303892       -0.4719611727        1.3634484352
 H         -6.3414165500        1.6687381293        0.4662067546
 H         -5.5776734061        2.4899859306       -1.7324572077
 H         -3.9297258550        1.1996721881       -3.0350543266
 H         -3.0337996355       -0.9301128807       -2.1169804569
 H         -1.2915298337       -2.1721824000       -0.2147104095
 H         -3.0225755780       -0.7027729997        2.6033877117
 H         -2.5370978709        1.5942887169        3.4073270802
 H         -0.8017526700        2.9490039736        2.3014293102
 C          0.7445360003        2.2756247427        0.1735003897
 H          0.9699480448        3.1331961181        0.8262583808
 C          0.2719203726        2.8408563029       -1.1609562518
 C         -0.9245248017        2.3387959241       -1.9058748765
 C         -0.9767441117        3.6703351278       -1.2235730500
 H         -0.9726055774        4.5662453768       -1.8254006678
 H         -1.5668862862        3.7429995687       -0.3225141656
 H         -0.8599227992        2.3049291416       -2.9826771680
 H         -1.4921324459        1.5276617177       -1.4782372352
 H          1.1072368782        3.1749944043       -1.7685739065
 O          1.5264515310        0.2919111177       -1.8998714277
