  62
        -98.94191405
 C          1.2872346415        1.3804254102        0.7292256850
 C          1.8577212883        1.1165579988       -0.5406936046
 C          2.8018175790       -0.0111515377       -0.5965965531
 C          3.0179000581       -0.7513462744        0.5049181565
 C          3.9398075673       -1.9334288729        0.5777535549
 C          3.2071859353       -3.2447822158        0.2652171459
 C          2.3553052956       -3.1914212688       -1.0025815464
 H          1.9142453855       -4.1802948618       -1.1397684671
 H          1.5314002907       -2.4902296516       -0.8503892778
 C          3.1263496900       -2.8012553895       -2.2710663118
 H          2.8268819791       -3.4687064583       -3.0816389785
 H          4.1965002474       -2.9422976155       -2.1144918553
 C          2.8702763406       -1.3729828093       -2.7548219906
 H          3.2765626126       -1.2780106211       -3.7654347472
 H          1.7940123048       -1.1924383270       -2.8168125924
 C          3.4965973738       -0.2597879007       -1.9058987488
 H          4.5561620395       -0.4708642939       -1.7456159264
 H          3.4139858361        0.6734499780       -2.4708306452
 H          2.5543774068       -3.4807165510        1.1075698615
 H          3.9498455525       -4.0395322913        0.1746134156
 H          4.7590538232       -1.7864398985       -0.1237336209
 H          4.3471374576       -1.9870971395        1.5889692308
 O          2.3841378732       -0.5211961424        1.6838518429
 C          1.5069406044        0.5416427830        1.8243551595
 O          0.9880209980        0.6282951125        2.9558332171
 H         -1.3105956970        0.5290992693        0.4295913520
 C         -1.5069200989        1.3514140153       -0.2424942686
 C         -0.7382121561        2.5041808013       -0.1394913272
 C         -0.9871433945        3.5504544257       -1.0165063908
 C         -1.9834286964        3.4353129257       -1.9706850178
 C         -2.7618278505        2.2955442590       -2.0535275021
 C         -2.5201708672        1.2418314696       -1.1785244495
 N         -3.2797011246        0.0632389170       -1.2312329435
 S         -3.7130412290       -0.7205174300        0.1834434692
 O         -4.9173129995       -1.4451659409       -0.1642718595
 O         -3.8222591052        0.2011178666        1.2894531252
 C         -2.4121004861       -1.9015926584        0.4710175423
 C         -2.2647917045       -2.9324015188       -0.4368453617
 C         -1.2881799439       -3.8883552114       -0.2133216132
 C         -0.4759338210       -3.7972034140        0.9073254027
 C         -0.6286258447       -2.7519803488        1.8044117729
 C         -1.6097316451       -1.7966091198        1.5892599910
 H         -1.7553686954       -0.9751890777        2.2748515652
 H          0.0104740399       -2.6640086829        2.6694134910
 H          0.2786570803       -4.5471495986        1.0848079829
 H         -1.1621750202       -4.7012496617       -0.9100123187
 H         -2.9237896043       -2.9732661095       -1.2880702901
 H         -4.0343759274        0.0721903026       -1.9016516238
 H         -3.5454202688        2.2148119166       -2.7917143357
 H         -2.1620075620        4.2503203591       -2.6558525660
 H         -0.3877280864        4.4447122370       -0.9695964605
 C          0.3161776906        2.5293612650        0.9396081325
 H         -0.1909628397        2.3003366446        1.8925538324
 C          0.9717866702        3.8895875205        1.1221140168
 C          2.3484455197        4.0078994930        1.7038900562
 C          2.1074433895        4.3669854105        0.2699393839
 H          2.1333462923        5.4115024738       -0.0049590064
 H          2.4705273432        3.7039035558       -0.4982530314
 H          2.8783905139        3.0913697733        1.9203870300
 H          2.5406033336        4.8007311231        2.4112417626
 H          0.2532422818        4.6400778728        1.4385670228
 O          1.6127084380        1.7853811858       -1.5769325948
