  62
        -98.94427517
 C         -1.8278308196       -1.0861357300       -0.1251148494
 C         -2.3135538694        0.0428051695       -0.8274037702
 C         -3.7767309594        0.1797453396       -0.8812064806
 C         -4.5496963696       -0.7526937001       -0.2950346802
 C         -6.0481742396       -0.7054529000       -0.2270186005
 C         -6.5234408998        0.0093487108        1.0457860689
 C         -5.8390661798        1.3540584410        1.2916289182
 H         -6.2740013200        1.7792130315        2.1987568979
 H         -4.7787825499        1.1842171011        1.4924653286
 C         -5.9792362795        2.3578458403        0.1387708976
 H         -6.2341485096        3.3351726305        0.5539793469
 H         -6.7999267294        2.0598490599       -0.5147534124
 C         -4.7107971494        2.5461819997       -0.6956364923
 H         -4.8504792492        3.4227688093       -1.3340117128
 H         -3.8640570795        2.7541274201       -0.0362999122
 C         -4.3319356292        1.3723865291       -1.6075111515
 H         -5.1912901591        1.0879533688       -2.2183039415
 H         -3.5342372391        1.7141404187       -2.2738756215
 H         -7.6028670098        0.1556751608        0.9766817386
 H         -6.3222683200       -0.6385190186        1.9020314094
 H         -6.4246862096       -1.7296795599       -0.2199296800
 H         -6.4306782894       -0.1941896005       -1.1082131009
 O         -4.0451324497       -1.8325959497        0.3546674306
 C         -2.6773074698       -2.0214306297        0.4655895010
 O         -2.3473825399       -3.0400431393        1.1058024416
 O         -1.5685056093        0.8934753892       -1.3806622306
 C         -0.3311594996       -1.3171821500       -0.0062561890
 C          0.3201311803       -0.1177484297        0.6362400304
 C         -0.1899896900        0.3414253411        1.8490805500
 C          0.3510791999        1.4488153915        2.4706583194
 C          1.4225031701        2.1161854611        1.9027320093
 C          1.9446900103        1.6620217403        0.6981241396
 C          1.4007288504        0.5443824900        0.0763125902
 H          1.8127766806        0.2266614194       -0.8665299595
 N          3.0225672705        2.3271703499        0.1020255195
 S          4.1482264406        1.5221351393       -0.8214645998
 O          5.3096929007        2.3863343493       -0.7984963401
 O          3.6210966809        1.2198399385       -2.1282878897
 C          4.5087567504        0.0077647998        0.0524577612
 C          4.5875803205       -1.1719639906       -0.6579470281
 C          4.8861215903       -2.3458462702        0.0153213127
 C          5.0999536500       -2.3191142694        1.3843236727
 C          5.0234526199       -1.1247175189        2.0844079320
 C          4.7282397201        0.0518054107        1.4151677612
 H          4.6689257900        0.9930806110        1.9363558306
 H          5.1921369797       -1.1070071383        3.1490806620
 H          5.3282898199       -3.2338513691        1.9083100133
 H          4.9471735104       -3.2742657805       -0.5297338667
 H          4.4084053607       -1.1473986913       -1.7205985181
 H          3.4239347504        3.0805421202        0.6389316391
 H          1.8418124400        2.9885324014        2.3803143688
 H         -0.0617956502        1.7969430721        3.4055007491
 H         -1.0290491401       -0.1799819286        2.2901544002
 H         -0.2092592498       -2.1759725396        0.6699133416
 C          0.2432673806       -1.6799375309       -1.3590232087
 C          1.4561143806       -2.5534978710       -1.4545722279
 C          0.1121275007       -3.0932638412       -1.8390711978
 H         -0.0971069091       -3.2661772018       -2.8841253278
 H         -0.3685489095       -3.7972077307       -1.1751922975
 H          2.1686838808       -2.3532412515       -2.2401802178
 H          1.8985076904       -2.8975999104       -0.5320502076
 H          0.1223651008       -0.8900458113       -2.0920497792
