  62
        -98.95138092
 C         -1.8112455675       -1.2718753551       -0.2861846313
 C         -2.9093462279       -0.6025908509        0.3009761005
 C         -3.2422199282        0.7039641077       -0.2749442721
 C         -2.5258790721        1.1797859637       -1.3099824807
 C         -2.7298930755        2.5051428580       -1.9912731838
 C         -2.0273513388        3.6662481609       -1.2737087600
 C         -2.7016832463        4.1300964848        0.0181423386
 H         -2.2552216085        5.0901549448        0.2850602319
 H         -3.7636691350        4.3014625874       -0.1641413218
 C         -2.5257481194        3.1647021522        1.1987124418
 H         -1.6903436956        2.4903285669        0.9920959939
 H         -2.2545294113        3.7312461316        2.0933803086
 C         -3.7709171464        2.3461665734        1.5430551170
 H         -4.5606881552        3.0145465363        1.8947865098
 H         -3.5160064521        1.6667036001        2.3607407364
 C         -4.3233770346        1.5066088445        0.3838224564
 H         -5.0575408208        0.8058262857        0.7897729336
 H         -4.8178091087        2.1498383142       -0.3437355064
 H         -1.9926171213        4.5101748665       -1.9670626925
 H         -0.9989950178        3.3678284987       -1.0524414727
 H         -3.7954788446        2.7183692626       -2.0816567303
 H         -2.3054522429        2.4105712614       -2.9930569803
 O         -1.5100750464        0.4824602397       -1.8800159663
 C         -1.0936007198       -0.7262425649       -1.3498768962
 O         -0.0987089266       -1.2213139998       -1.9163070679
 O         -3.5710348305       -1.0708387650        1.2681786090
 C         -1.3202547067       -2.5718088155        0.3235422363
 C          0.1157822273       -2.4106602153        0.7610069912
 C          1.0750901032       -3.4064921379        0.6244729484
 C          2.3847585752       -3.1794604558        1.0126653508
 C          2.7725608594       -1.9507309715        1.5152690876
 C          1.8176119225       -0.9523296810        1.6647738695
 C          0.4994182905       -1.1997379931        1.3232722260
 H         -0.2275982616       -0.4114333591        1.4541215581
 N          2.1526654695        0.3399462533        2.1270380539
 S          2.0148536593        1.5623396580        0.9818110853
 O          2.4805288228        2.7598006225        1.6490372708
 O          0.6740494456        1.6036440103        0.4621882044
 C          3.1908178857        1.0916148908       -0.2741989716
 C          4.4709205248        1.6073649598       -0.1946220713
 C          5.4243576054        1.1845343939       -1.1057324017
 C          5.0859255682        0.2463548193       -2.0697942511
 C          3.7986309307       -0.2633682580       -2.1330744817
 C          2.8361134749        0.1581857478       -1.2271810001
 H          1.8271135894       -0.2238053912       -1.2659206501
 H          3.5268765889       -0.9922921948       -2.8796706626
 H          5.8281750400       -0.0888509823       -2.7770205055
 H          6.4251177923        1.5828499954       -1.0593868990
 H          4.6853297103        2.3359755037        0.5707222194
 H          3.0711407303        0.3934978101        2.5474923649
 H          3.8006774335       -1.7616440355        1.7854605259
 H          3.1180919854       -3.9631286133        0.8996912937
 H          0.7980991308       -4.3600056075        0.2051496779
 H         -1.9429028416       -2.7327178824        1.2168068395
 C         -1.5284818733       -3.7286277246       -0.6319620716
 C         -1.8085731735       -5.1054576797       -0.1095992127
 C         -2.9002465374       -4.3165311971       -0.7657634937
 H         -3.2398987346       -4.6157831096       -1.7458710680
 H         -3.6784649727       -3.8995167862       -0.1432302119
 H         -1.4006101412       -5.9515661923       -0.6417872343
 H         -1.8538011446       -5.2353658178        0.9611492184
 H         -0.9352068205       -3.6313713336       -1.5343049217
