  62
        -98.93973158
 C         -2.4566803582       -0.2493462940        0.2839634501
 C         -3.6137842658       -0.0743829221        1.0795812893
 C         -4.7771163160        0.5119762967        0.4014377571
 C         -4.6732828272        0.8669390212       -0.8925428632
 C         -5.7933961068        1.4281532686       -1.7188642959
 C         -6.5701924855        0.3126861630       -2.4323307608
 C         -6.9837484123       -0.8372597149       -1.5138939960
 H         -7.5507348996       -1.5484016846       -2.1185350455
 H         -6.0872398754       -1.3548681300       -1.1651008856
 C         -7.8252203136       -0.4112304096       -0.3027823495
 H         -8.6618532101       -1.1049275569       -0.1960441775
 H         -8.2464718975        0.5800047588       -0.4742312290
 C         -7.0699767521       -0.4171419775        1.0275742377
 H         -7.8009980195       -0.3153108903        1.8341061076
 H         -6.5688412514       -1.3793181232        1.1600780930
 C         -6.0307031019        0.6962526505        1.2098522874
 H         -6.4877620535        1.6649878235        0.9975925665
 H         -5.7150499383        0.6878461330        2.2573645701
 H         -5.9401780640       -0.0933733452       -3.2270279294
 H         -7.4577610130        0.7506479004       -2.8925241470
 H         -6.4622580513        1.9975782522       -1.0764174255
 H         -5.3659467635        2.0974918497       -2.4673316028
 O         -3.5360645209        0.7087583267       -1.6166274200
 C         -2.4020487286        0.1414696517       -1.0538935830
 O         -1.4363064040        0.0423501080       -1.8337011504
 H          1.3366333702       -1.1742902428       -0.0949027207
 C          1.1603524047       -0.1902085277        0.3104669006
 C         -0.0755593114        0.1233201554        0.8513587702
 C         -0.2673987136        1.3998942988        1.3745769849
 C          0.7440606100        2.3393306235        1.3368831304
 C          1.9706571744        2.0294390002        0.7753715282
 C          2.1768596436        0.7578093280        0.2604010044
 N          3.4131087731        0.4374555967       -0.3269293232
 S          4.8150411477        0.9857375975        0.4372284100
 O          4.7409061525        0.7230058429        1.8573114926
 O          5.0364040952        2.3603637753        0.0639254420
 C          6.0447733901       -0.0536523775       -0.3260578732
 C          6.4405114031       -1.2136647422        0.3126412497
 C          7.3806637740       -2.0279248020       -0.2990037306
 C          7.9036348179       -1.6718940855       -1.5330982347
 C          7.4961139694       -0.5046069384       -2.1618280955
 C          6.5572623354        0.3147332673       -1.5554944812
 H          6.2174681251        1.2346993249       -2.0018500992
 H          7.9067712594       -0.2303993524       -3.1201702634
 H          8.6357510563       -2.3068502419       -2.0065827637
 H          7.7018615073       -2.9343618858        0.1883864114
 H          6.0150108857       -1.4457899694        1.2758252476
 H          3.4818693821       -0.5418388416       -0.5673074235
 H          2.7684785009        2.7535547268        0.7365725278
 H          0.5784174815        3.3251691947        1.7456958685
 H         -1.2264416243        1.6460787726        1.8104005418
 C         -1.2184414810       -0.8599213266        0.9151642204
 H         -1.4759961289       -1.0112730781        1.9740249002
 C         -0.9142572619       -2.2052210436        0.2911372193
 C         -0.1648573911       -3.2444524144        1.0690169847
 C         -1.6294560753       -3.4178763570        0.8037725411
 H         -1.9410775836       -4.1706884761        0.0953151087
 H         -2.3199063300       -3.2770192858        1.6225237474
 H          0.1423377909       -2.9912827383        2.0725516172
 H          0.5278230846       -3.8841087434        0.5430079678
 H         -0.7448518760       -2.1401813370       -0.7778898256
 O         -3.6690806124       -0.3900758405        2.2991306310
