  62
        -98.94393116
 C          1.8260976294        1.1428855502        0.2501982911
 C          2.1435673398        0.1377807806       -0.6945961192
 C          3.5692776699        0.0051050710       -1.0307938189
 C          4.4635433696        0.8291092510       -0.4546346784
 C          5.9484630796        0.7648749514       -0.6631252581
 C          6.6162761196       -0.1450094989        0.3775290317
 C          5.9425538398       -1.5088692691        0.5287959810
 H          4.9398732697       -1.3689363894        0.9392570608
 H          6.5155898598       -2.0749968193        1.2663040309
 C          5.8455857703       -2.3165129686       -0.7729852493
 H          6.1381390104       -3.3484509586       -0.5679386096
 H          6.5474753403       -1.9210494082       -1.5080944490
 C          4.4446990704       -2.3649489287       -1.3861460896
 H          3.7205381803       -2.6723109491       -0.6269765499
 H          4.4412012907       -3.1292986584       -2.1680377299
 C          3.9489368903       -1.0595653385       -2.0210727093
 H          3.0354886005       -1.2886214885       -2.5782591295
 H          4.6957210304       -0.6851487181       -2.7243957190
 H          6.5892826693        0.3591727907        1.3462406218
 H          7.6615014997       -0.2832553586        0.0952655218
 H          6.1535404899        0.3982375818       -1.6669535082
 H          6.3535172594        1.7733052514       -0.5640306977
 O          4.1165806792        1.7949241406        0.4340080819
 C          2.7965619691        1.9692279502        0.8165381516
 O          2.6182557687        2.8748468399        1.6558435319
 H         -2.0298855304        0.1364566495        0.1031054399
 C         -1.4439386005       -0.4012159606        0.8292708798
 C         -0.1983615806        0.0711269695        1.2129550903
 C          0.5281419193       -0.6521767007        2.1558332002
 C          0.0324149794       -1.8302023310        2.6781982896
 C         -1.2010968304       -2.3107009411        2.2750188892
 C         -1.9425354103       -1.5896372309        1.3472145593
 N         -3.2183245802       -2.0269949710        0.9704069288
 S         -3.8550637199       -1.7337300206       -0.5455642912
 O         -4.9673056797       -2.6570343207       -0.6405364918
 O         -2.8661163297       -1.8304602700       -1.5922116110
 C         -4.5002808102       -0.0766949207       -0.4504827007
 C         -4.4278845702        0.7306606197       -1.5681557704
 C         -4.9771037604        2.0025676996       -1.5151108300
 C         -5.5857021007        2.4429795390       -0.3499176900
 C         -5.6499290208        1.6196153186        0.7638377497
 C         -5.1076653106        0.3453179487        0.7156412293
 H         -5.1408824506       -0.3201719616        1.5618020291
 H         -6.1215942911        1.9667749482        1.6689361197
 H         -6.0092878309        3.4340663489       -0.3104227697
 H         -4.9271158403        2.6434396499       -2.3813335798
 H         -3.9331623699        0.3524897801       -2.4490312904
 H         -3.4862315301       -2.9330664112        1.3248005684
 H         -1.5868259903       -3.2359469813        2.6752159387
 H          0.6121574894       -2.3840547412        3.4014592195
 H          1.4946353692       -0.2786291007        2.4671684205
 C          0.3843034892        1.3551289898        0.6752628609
 H          0.4172590689        2.0842534895        1.4985856512
 C         -0.4156742006        1.9503234401       -0.4648034791
 C         -1.5754075609        2.8543646097       -0.1759041290
 C         -0.3042986508        3.4202035702       -0.7322269585
 H         -0.2924322407        3.7580499806       -1.7575335684
 H          0.3348710489        3.9933681701       -0.0762338581
 H         -1.8067618511        3.0521427093        0.8596700010
 H         -2.4411187207        2.8044084498       -0.8187808492
 H         -0.4798610203        1.2868983204       -1.3206461493
 O          1.2847481500       -0.6117345893       -1.2292904897
