  62
        -98.94466820
 C          1.8507669106        0.4817386910       -0.5525563689
 C          2.8920541405        1.2919942405       -0.0401234780
 C          4.2563662405        0.7837875206       -0.2336330283
 C          4.4376001806       -0.3815535087       -0.8817269394
 C          5.7680336206       -1.0393317285       -1.1049793099
 C          6.1067156505       -2.0090761796        0.0357556992
 C          5.9308818104       -1.4070049710        1.4298372797
 H          4.8711132603       -1.2014596611        1.5970300498
 H          6.2279430803       -2.1695602817        2.1530538290
 C          6.7408261303       -0.1262253312        1.6751239211
 H          7.2169058802       -0.1955244622        2.6555054411
 H          7.5368012504       -0.0437720505        0.9342102812
 C          5.9112246803        1.1591319188        1.6726642922
 H          5.0579769303        1.0453584181        2.3460050220
 H          6.5340522303        1.9660680584        2.0676812431
 C          5.3880531205        1.6139225501        0.3042442526
 H          4.9878894505        2.6252848200        0.4211346635
 H          6.2122531706        1.6515469508       -0.4108684073
 H          5.4530291105       -2.8806641095       -0.0457753017
 H          7.1376758705       -2.3445132595       -0.0909328310
 H          5.7226714507       -1.5965740076       -2.0421967905
 H          6.5373459007       -0.2738355684       -1.1858873491
 O          3.4132445807       -1.1252772482       -1.3724706503
 C          2.0950356107       -0.7213351884       -1.2146978900
 O          1.2573505107       -1.5040144179       -1.7015634909
 O          2.6890884305        2.3852825399        0.5531789531
 C          0.4136060406        0.9460166008       -0.3903524886
 C         -0.3792767495       -0.0937629299        0.3601638103
 C          0.1079443303       -0.5399467911        1.5874084199
 C         -0.5571827097       -1.5160745918        2.3012305389
 C         -1.7312605997       -2.0625877313        1.8121805983
 C         -2.2315350995       -1.6189920001        0.5949675986
 C         -1.5635557395       -0.6305841695       -0.1181558803
 H         -1.9681783794       -0.3179443485       -1.0657194101
 N         -3.4123913695       -2.1659364996        0.0731907480
 S         -4.5223738194       -1.1973475989       -0.7077796112
 O         -5.7635179394       -1.9375662290       -0.6261943621
 O         -4.0720361893       -0.8695573476       -2.0364430209
 C         -4.6298972795        0.2795340002        0.2879533302
 C         -4.9798026897        0.1500658989        1.6179638000
 C         -5.0521382497        1.2869985481        2.4056848911
 C         -4.7766927397        2.5288926086        1.8534054924
 C         -4.4343133295        2.6429278999        0.5153662725
 C         -4.3581900294        1.5079324707       -0.2764385786
 H         -4.0919748593        1.5510366817       -1.3196572485
 H         -4.2247721195        3.6093360203        0.0850653835
 H         -4.8316678597        3.4132070280        2.4685297632
 H         -5.3219974799        1.2024399571        3.4460019510
 H         -5.1995919897       -0.8275560215        2.0147548891
 H         -3.8592109096       -2.8546771302        0.6596178372
 H         -2.2479250697       -2.8350797219        2.3611143874
 H         -0.1614090598       -1.8562860627        3.2462538886
 H          1.0277516203       -0.1156367115        1.9663708904
 H          0.4689937405        1.8526596602        0.2303366323
 C         -0.1673958993        1.3155465921       -1.7380997883
 C         -1.2347971793        2.3615158522       -1.8412232374
 C          0.1547979108        2.6604714327       -2.3153641270
 H          0.3353147609        2.7365583137       -3.3771898869
 H          0.7695460107        3.3193156221       -1.7196270762
 H         -2.0086733992        2.2292854629       -2.5826267276
 H         -1.5687190194        2.8242083813       -0.9251062770
 H         -0.2062207792        0.4753234028       -2.4230219491
