  62
        -98.94055040
 C         -0.1189068684       -1.8622216904        0.1867310693
 C         -1.0906494683       -1.1975819708        0.9656418497
 C         -2.3201970686       -0.7728919110        0.2703811703
 C         -2.4287796990       -0.9895834908       -1.0528474998
 C         -3.5770116694       -0.6585469809       -1.9737316593
 C         -4.2433093698        0.7142301189       -1.7958529188
 C         -5.6464833595        0.6381447883       -1.1896141283
 H         -6.2017578099        1.5305712282       -1.4867162879
 H         -6.1610559194       -0.2235516917       -1.6199938883
 C         -5.6984495390        0.5477831280        0.3346513017
 H         -6.7357404789        0.3544870276        0.6176707320
 H         -5.4187441391        1.5128247880        0.7625740118
 C         -4.8105736685       -0.5324174119        0.9550506711
 H         -4.8551544484       -1.4473367618        0.3652614410
 H         -5.2114794681       -0.7691328122        1.9427516612
 C         -3.3492326985       -0.0930061115        1.1330519508
 H         -3.2716234589        0.9892664485        0.9947632110
 H         -3.0250542081       -0.2961237317        2.1585848406
 H         -3.6013423798        1.3651823089       -1.2037786888
 H         -4.3288632102        1.1690386591       -2.7844492886
 H         -3.1586778597       -0.7372165405       -2.9800601795
 H         -4.3279404592       -1.4485904411       -1.8857597992
 O         -1.4536908691       -1.6173438203       -1.7701160002
 C         -0.2800016088       -2.0561661301       -1.1844012907
 O          0.5158807911       -2.6038729097       -1.9714970111
 O         -0.9426466079       -0.9660719311        2.1966613197
 C          1.1801845720       -2.3031074401        0.8380715487
 C          2.3296533216       -1.5925396896        0.1667048185
 C          3.4839338716       -2.2254728992       -0.2734638620
 C          4.4641170412       -1.5050408288       -0.9350267122
 C          4.3083313607       -0.1542309588       -1.1842522818
 C          3.1632476107        0.4922955808       -0.7306804313
 C          2.2052706611       -0.2233251896       -0.0343024312
 H          1.3179434911        0.2799019100        0.3186743893
 N          2.9702377202        1.8636913808       -0.9482844009
 S          1.4286567899        2.4874170904       -1.1333966803
 O          0.5306491300        1.5611914503       -1.7830674802
 O          1.6408265293        3.7485935106       -1.8144089301
 C          0.9022024304        2.8205875399        0.5332492100
 C         -0.2966030293        2.3113924094        0.9887027903
 C         -0.6890366089        2.5783115690        2.2905406305
 C          0.1197415811        3.3529119591        3.1073325904
 C          1.3176760208        3.8658955295        2.6322946301
 C          1.7163993904        3.5984848699        1.3329196699
 H          2.6385764802        3.9775016003        0.9253746696
 H          1.9422849408        4.4682319095        3.2721238900
 H         -0.1872486086        3.5547393387        4.1214007905
 H         -1.6126570587        2.1647986486        2.6622895707
 H         -0.8880335693        1.6987011594        0.3244167203
 H          3.6381352498        2.3003697511       -1.5662826211
 H          5.0595162703        0.3970510716       -1.7290414020
 H          5.3542836912       -2.0086204184       -1.2805847426
 H          3.6105035320       -3.2838258092       -0.1152202523
 H          1.1187288522       -1.9593009104        1.8813286288
 C          1.3046403324       -3.8115607801        0.8244416484
 C          2.0985670130       -4.5132922301        1.8846582479
 C          0.6032125930       -4.6062001005        1.8836309884
 H          0.1421577932       -5.5418726906        1.6051044084
 H          0.0540957131       -4.0551853209        2.6329824387
 H          2.6649938632       -5.3898799999        1.6087204875
 H          2.5671235631       -3.9043077201        2.6426376879
 H          1.3162206022       -4.2174122299       -0.1810961517
