  62
        -98.93455154
 C         -2.4620818552       -1.2768928988        0.3051665307
 C         -2.5628860300       -0.1345472323       -0.5202391462
 C         -3.7636804212        0.7052406547       -0.3389598615
 C         -4.6891125763        0.3370450792        0.5650945420
 C         -5.9830666953        1.0223595464        0.9252726089
 C         -6.8371223710        1.5361631582       -0.2441968274
 C         -6.8710787479        3.0619033815       -0.3472765530
 H         -7.7802331758        3.3563226333       -0.8763317391
 H         -6.9324403664        3.4771025197        0.6608384826
 C         -5.6865278233        3.6887213862       -1.0806416460
 H         -5.7591867886        4.7721624173       -0.9599597740
 H         -5.7691551038        3.4750897601       -2.1485372238
 C         -4.3055499819        3.2339808694       -0.6036674846
 H         -4.2819179274        3.1578081417        0.4827017218
 H         -3.5854384037        4.0056297389       -0.8839997833
 C         -3.8404025585        1.9125484394       -1.2334147407
 H         -4.4660555765        1.6710342156       -2.0977599284
 H         -2.8239944117        2.0291845816       -1.6225728352
 H         -6.4860750637        1.1009442538       -1.1785885368
 H         -7.8590302686        1.1863274942       -0.0891641200
 H         -6.5454845357        0.2818023769        1.4984223499
 H         -5.7615263610        1.8434891273        1.6114420621
 O         -4.5456820832       -0.7755710103        1.3423756226
 C         -3.4407798488       -1.5990018796        1.2436965724
 O         -3.4444446916       -2.5677369787        2.0301948919
 H          1.0058343980       -1.8380866119       -1.3573949152
 C          1.0613305850       -1.3366419719       -0.4038995835
 C          0.0021349500       -1.4184745419        0.4844274355
 C          0.1097656956       -0.7633264202        1.7089490343
 C          1.2412799582       -0.0377218581        2.0254785031
 C          2.2904178334        0.0567044755        1.1268829828
 C          2.1973131425       -0.5975318118       -0.0927988034
 N          3.2465310760       -0.4927510059       -1.0178791524
 S          4.8304611263       -0.6593182385       -0.5019161908
 O          5.5703240460       -1.0452476709       -1.6836905214
 O          4.9285599762       -1.5472830391        0.6333373908
 C          5.3111921065        0.9894770608       -0.0310675555
 C          5.9014533399        1.2068381758        1.1984823952
 C          6.2849042513        2.4944437827        1.5401575911
 C          6.0735363199        3.5362229529        0.6502103971
 C          5.4814495455        3.3009156239       -0.5818058079
 C          5.0974381575        2.0158846574       -0.9301077000
 H          4.6357892445        1.7933481466       -1.8776383357
 H          5.3175110574        4.1138747590       -1.2707958435
 H          6.3712868166        4.5376588856        0.9183492362
 H          6.7453920039        2.6792219948        2.4974080221
 H          6.0399845839        0.3675449270        1.8614132490
 H          3.0835681496       -0.9763258006       -1.8885271972
 H          3.1740010530        0.6256309013        1.3657245303
 H          1.3081180391        0.4643052705        2.9788709031
 H         -0.7125810739       -0.8326054998        2.4086530155
 C         -1.2584646775       -2.1959770763        0.1932594752
 H         -1.3797139191       -2.9499274020        0.9845207969
 C         -1.2565443562       -2.8971698533       -1.1486797969
 C         -0.5479477847       -4.2078175116       -1.3091798469
 C         -2.0458471888       -4.1603575149       -1.3064767896
 H         -2.5694038096       -4.3288955087       -2.2355635761
 H         -2.5701826036       -4.5299049487       -0.4371759478
 H         -0.0511650619       -4.6165815639       -0.4420518551
 H         -0.0445718225       -4.4139683960       -2.2420061995
 H         -1.2521127877       -2.2052152571       -1.9830373447
 O         -1.6921815885        0.1780833494       -1.3743356402
