  62
        -98.93790600
 C         -2.4261620149       -0.4309732361        0.4607268242
 C         -3.2228803305       -0.3702811326       -0.7096097905
 C         -4.3071663151        0.6269582404       -0.6919544558
 C         -4.4539188791        1.4339008346        0.3732412846
 C         -5.5393662738        2.4575658786        0.5345302588
 C         -6.7649004369        1.8610914012        1.2407739490
 C         -7.2350436560        0.5337153788        0.6457875258
 H         -6.4674342113       -0.2247230497        0.8162529099
 H         -8.1218419693        0.2234579685        1.2028182015
 C         -7.5659305897        0.5911490049       -0.8521148768
 H         -8.5077654718        0.0653593023       -1.0227909264
 H         -7.7133263736        1.6271000843       -1.1593315930
 C         -6.5206319083       -0.0619581905       -1.7583624267
 H         -6.3023976212       -1.0704809643       -1.3979238258
 H         -6.9513857026       -0.1588306484       -2.7585076805
 C         -5.1949803637        0.6959941255       -1.9029086063
 H         -4.6310898339        0.2262912041       -2.7141170640
 H         -5.3925939237        1.7339498171       -2.1778151074
 H         -6.5126634470        1.6952288062        2.2907593674
 H         -7.5769043742        2.5892078053        1.1974624373
 H         -5.1488732112        3.2799626107        1.1362385400
 H         -5.8211276275        2.8386444924       -0.4450857690
 O         -3.6437125888        1.3740954980        1.4614613068
 C         -2.6273716078        0.4389823797        1.5359369605
 O         -1.9770525642        0.4741566453        2.6007974414
 O         -3.0565501126       -1.0960139359       -1.7222078842
 C         -1.2845548912       -1.4190195921        0.6391011616
 C         -0.0002628109       -0.8459003880        0.0975895285
 C          0.0881024764       -0.3780302895       -1.2100062640
 C          1.2769993703        0.1417788105       -1.6878801900
 C          2.3958155774        0.2127850212       -0.8758508813
 C          2.3175185529       -0.2468662561        0.4314428191
 C          1.1236183923       -0.7749822910        0.9070200330
 H          1.0632779071       -1.1215143277        1.9303297425
 N          3.4442508822       -0.1593760979        1.2652869377
 S          4.9106156907       -0.7447517922        0.6950080798
 O          4.7142100651       -1.8108882243       -0.2594252984
 O          5.6710163408       -1.0738632654        1.8805947140
 C          5.6568844314        0.6618805420       -0.1006968624
 C          5.8138901519        1.8198817509        0.6354888900
 C          6.4042358398        2.9197515411        0.0340148336
 C          6.8281437848        2.8425829627       -1.2844490665
 C          6.6664660633        1.6715866088       -2.0088611269
 C          6.0755463347        0.5679226931       -1.4134240521
 H          5.9247237199       -0.3614473999       -1.9393082261
 H          6.9971126980        1.6135236573       -3.0334534522
 H          7.2873010456        3.7004149534       -1.7499331521
 H          6.5314198417        3.8322782655        0.5939116924
 H          5.4747252761        1.8383508300        1.6578265654
 H          3.2771856715       -0.4631796119        2.2135701428
 H          3.3230223362        0.6198388281       -1.2448209145
 H          1.3333535263        0.4991501327       -2.7049400907
 H         -0.7833963364       -0.4317606430       -1.8446507881
 H         -1.1646258817       -1.5208481488        1.7296729793
 C         -1.6012646933       -2.8052874293        0.0939298850
 C         -0.9175402414       -3.4182438950       -1.0871709153
 C         -0.6205421082       -3.9239254017        0.2904324998
 H         -0.9907696534       -4.8951083710        0.5821924688
 H          0.3410302259       -3.6727995608        0.7143597096
 H         -1.5159807179       -4.0259940316       -1.7484356834
 H         -0.1540655438       -2.8490536434       -1.5932139461
 H         -2.6495141484       -3.0565320579        0.2197732334
