  62
        -98.93793302
 C         -1.2423511197       -0.9699755797        0.1268256709
 C         -1.7705048099        0.0524368408        0.9515117503
 C         -2.8745155900        0.8541776903        0.3976427898
 C         -3.2730996299        0.6379785294       -0.8692554001
 C         -4.3286154999        1.3240804288       -1.7111523206
 C         -5.3984069501        2.1993648190       -1.0626809812
 C         -6.3817825500        1.4513480894       -0.1635575708
 H         -6.9973716399        0.7988786090       -0.7878500704
 H         -7.0419911801        2.1860597996        0.3025090187
 C         -5.7520637600        0.5879179502        0.9266709397
 H         -5.1847745198       -0.2246508200        0.4678862403
 H         -6.5629133699        0.1303311604        1.4998276700
 C         -4.8494574401        1.3310310509        1.9101973394
 H         -4.6137399501        0.6410417414        2.7248229398
 H         -5.3893400303        2.1787697811        2.3361023588
 C         -3.5148330902        1.8379022307        1.3337477291
 H         -2.8150781102        1.9714452113        2.1640106991
 H         -3.6311013703        2.8054195204        0.8502811785
 H         -5.9717321601        2.6443020385       -1.8806844015
 H         -4.9364648602        3.0196438494       -0.5209368717
 H         -4.8161338098        0.5270603884       -2.2817768202
 H         -3.7785595400        1.9317466584       -2.4387663209
 O         -2.6699243797       -0.2962972909       -1.6600761095
 C         -1.6525488496       -1.1187371405       -1.1971965390
 O         -1.2192995994       -1.9115226010       -2.0536444085
 O         -1.3309167000        0.2935302715        2.1082838002
 C         -0.1188816196       -1.8213825292        0.6872627115
 C          1.0496832505       -1.8368705296       -0.2659069384
 C          1.7002762306       -2.9882372797       -0.6884735877
 C          2.7847546507       -2.9020923501       -1.5448815677
 C          3.2585578305       -1.6764160603       -1.9750652884
 C          2.6114990303       -0.5178156101       -1.5597597991
 C          1.5159211903       -0.6094148698       -0.7187452591
 H          0.9978043302        0.2932159203       -0.4317340297
 N          3.0558866802        0.7506407897       -1.9633098299
 S          2.9511214099        2.0262625203       -0.8887549906
 O          1.5987537499        2.5228404902       -0.8236009610
 O          3.9441605698        2.9702437902       -1.3566725011
 C          3.4563054300        1.3414621913        0.6800917598
 C          4.7664041900        0.9175223216        0.7956242401
 C          5.1815390100        0.3305114024        1.9791315005
 C          4.2818213100        0.1724123029        3.0225670906
 C          2.9731139899        0.6099380326        2.8945727402
 C          2.5528536399        1.2013991618        1.7132964599
 H          1.5379147999        1.5451331116        1.5856366996
 H          2.2681023899        0.4894011430        3.7018449803
 H          4.6011915000       -0.2921866766        3.9420076509
 H          6.2004772801       -0.0055708474        2.0832970908
 H          5.4385547500        1.0653222312       -0.0339038399
 H          3.9207284302        0.7574020295       -2.4831650198
 H          4.1085337606       -1.6130506806       -2.6368753784
 H          3.2739409908       -3.8051823702       -1.8767770771
 H          1.3467745608       -3.9541780996       -0.3679806871
 H          0.2055941603       -1.2740453386        1.5894562912
 C         -0.5462613794       -3.2043406890        1.1555818723
 C         -1.9715710594       -3.4932190389        1.5184156224
 C         -1.3658973392       -4.1230832996        0.3017659728
 H         -1.1464915191       -5.1804880095        0.3299050835
 H         -1.6664742892       -3.7639006102       -0.6696193174
 H         -2.1664486494       -4.1142616484        2.3799199828
 H         -2.6947316795       -2.7027131891        1.3771051919
 H          0.2073450906       -3.6695770085        1.7833409326
