  62
        -98.94067104
 C         -1.9523087722       -0.8498217266        0.7157880735
 C         -1.8710030530       -0.1867767591       -0.5344134735
 C         -2.0860131768        1.2657338999       -0.5014179136
 C         -2.2574443685        1.8944995819        0.6738779584
 C         -2.4475922558        3.3743259474        0.8707399041
 C         -3.8938152309        3.8518952197        0.6783825401
 C         -4.3883599408        3.8668157625       -0.7686154891
 H         -3.6767180646        4.4138342995       -1.3876175617
 H         -5.3273914822        4.4235169909       -0.7797510992
 C         -4.6322541279        2.4753668895       -1.3691741584
 H         -5.5934410457        2.4654223106       -1.8876909795
 H         -4.6937634613        1.7378728164       -0.5656044073
 C         -3.5709375671        2.0238689826       -2.3726167981
 H         -3.5869618572        2.6814628265       -3.2444198975
 H         -3.8222476419        1.0142797741       -2.7072599271
 C         -2.1438905213        1.9947117897       -1.8093898977
 H         -1.7603942544        3.0085061845       -1.6947889373
 H         -1.5011441082        1.4579817376       -2.5116041084
 H         -3.9544082528        4.8692869909        1.0715512523
 H         -4.5512497052        3.2223547634        1.2824631673
 H         -2.1450202963        3.5907145217        1.8978285938
 H         -1.7869190001        3.9179639039        0.1944232428
 O         -2.2564350520        1.2322840163        1.8629013674
 C         -2.1068796333       -0.1442368004        1.9102745165
 O         -2.1255616509       -0.6181478819        3.0659660392
 H          0.6517758314       -1.2083987806        1.0901984561
 C          0.6760118290       -1.9740770211        0.3263878697
 C         -0.4755430695       -2.7019745548        0.0514160221
 C         -0.4230576743       -3.6846999348       -0.9271278423
 C          0.7494915784       -3.9058168440       -1.6294814337
 C          1.8792290956       -3.1481336150       -1.3846612395
 C          1.8390250074       -2.1699093056       -0.3964014294
 N          2.9717094127       -1.3879173651       -0.1049834740
 S          2.7316044114        0.2059766906        0.3987364847
 O          2.4627427143        0.2064809346        1.8165568921
 O          1.7594639694        0.8690511189       -0.4406309802
 C          4.3600944912        0.8720737507        0.1036482655
 C          4.6088643507        1.5612992449       -1.0681572387
 C          5.8864186981        2.0451610927       -1.3033383135
 C          6.8888119476        1.8294508796       -0.3696528950
 C          6.6238869835        1.1364800915        0.8023615080
 C          5.3485012564        0.6512177640        1.0441649262
 H          5.0913227839        0.1157756807        1.9431715189
 H          7.4046320118        0.9732589268        1.5275125474
 H          7.8819911804        2.2066599633       -0.5552040917
 H          6.0938597881        2.5872552900       -2.2118180773
 H          3.7954398571        1.7109464594       -1.7601215286
 H          3.6793579540       -1.4433347141       -0.8251964706
 H          2.7830256557       -3.3044764112       -1.9537630899
 H          0.7762590530       -4.6662159491       -2.3953467840
 H         -1.3058927733       -4.2558002706       -1.1629172904
 C         -1.7135031555       -2.3463477884        0.8384357263
 H         -1.4875043354       -2.5081908680        1.9063443152
 C         -2.9199383079       -3.2136083645        0.5134717865
 C         -4.3129349737       -2.6775142513        0.6530203682
 C         -3.7635778161       -2.9914255374       -0.7043438513
 H         -4.1499553234       -3.8566765149       -1.2230570913
 H         -3.4918217244       -2.1753507778       -1.3541521626
 H         -4.4209043066       -1.6399903654        0.9355214464
 H         -5.0721894966       -3.3240368352        1.0669522231
 H         -2.7716493583       -4.2437118552        0.8230072766
 O         -1.6398161786       -0.7644713490       -1.6277355836
