  62
        -98.94143626
 C         -2.3118401554       -1.0991587914       -0.5484817185
 C         -3.6264686939       -0.9707056231       -0.0332573481
 C         -4.3557324751        0.2398206788       -0.4239601914
 C         -3.7637710843        1.1457128723       -1.2233827089
 C         -4.3807437049        2.4248363152       -1.7204620455
 C         -4.2754987377        3.5927159646       -0.7300685075
 C         -5.1913157540        3.4949958685        0.4906957332
 H         -5.1764959650        4.4706542960        0.9804881247
 H         -6.2146311961        3.3108421632        0.1621202590
 C         -4.7759295491        2.4257205897        1.5109487487
 H         -3.7376487169        2.1344961639        1.3327657774
 H         -4.8188414186        2.8471295428        2.5179314324
 C         -5.6507919150        1.1719720591        1.5071728361
 H         -5.2445338257        0.4697282816        2.2395100790
 H         -6.6651603603        1.4325402615        1.8171381409
 C         -5.7225519085        0.4553539965        0.1524408622
 H         -6.3428973525        1.0226320664       -0.5408711456
 H         -6.1763990534       -0.5263951202        0.3078590011
 H         -3.2371455747        3.6791497864       -0.4006449939
 H         -4.5281680859        4.5054975097       -1.2745732389
 H         -3.8422990550        2.6964681479       -2.6309252261
 H         -5.4274715631        2.2533881995       -1.9728806870
 O         -2.5017598431        0.9848351027       -1.7008739737
 C         -1.7367829949       -0.1229514247       -1.3623144976
 O         -0.5938078726       -0.1161153181       -1.8594342815
 O         -4.1652746977       -1.8303499436        0.7131656252
 C         -1.5002188551       -2.3174391688       -0.1380860896
 C         -0.3952242859       -1.8428265249        0.7724609798
 C         -0.6885568107       -1.5659928367        2.1052184094
 C          0.2758414626       -1.0451068385        2.9470674811
 C          1.5505808260       -0.7804701121        2.4766307979
 C          1.8491711281       -1.0448894550        1.1473930632
 C          0.8845432386       -1.5863192669        0.3073503654
 H          1.1256032750       -1.7711045868       -0.7273997883
 N          3.1415975804       -0.7713093198        0.6542843264
 S          3.7725295947        0.7496058195        1.0407696792
 O          4.3468056651        0.6776201253        2.3620579588
 O          2.7717277946        1.7756283129        0.8471773216
 C          5.0688422398        0.9008635643       -0.1722094021
 C          6.3465692420        0.4832058093        0.1469642005
 C          7.3410910229        0.5781294034       -0.8136434697
 C          7.0424167250        1.0843516308       -2.0697124102
 C          5.7546855173        1.4994536841       -2.3753160968
 C          4.7550922636        1.4065658334       -1.4198143263
 H          3.7420596764        1.7244691457       -1.6126392576
 H          5.5246756192        1.8940846127       -3.3520060645
 H          7.8174895318        1.1586345368       -2.8160252618
 H          8.3436642269        0.2583070070       -0.5800157338
 H          6.5311978439        0.1035446602        1.1382003636
 H          3.1859248554       -0.9162920320       -0.3462153206
 H          2.3079222528       -0.3533235887        3.1141835566
 H          0.0337181228       -0.8346253894        3.9782129648
 H         -1.6909999452       -1.7483966183        2.4674939304
 H         -2.1874923867       -2.9383810075        0.4520850199
 C         -1.0211206032       -3.1173744370       -1.3303870078
 C         -0.5033822514       -4.5078553256       -1.1189404024
 C         -1.8249040989       -4.2944088384       -1.7919910758
 H         -1.9007164543       -4.4806607093       -2.8527883009
 H         -2.7239837469       -4.5315095634       -1.2424595816
 H          0.3296511523       -4.8453310023       -1.7162942475
 H         -0.5038019543       -4.8887426135       -0.1089125835
 H         -0.5526248157       -2.5103218975       -2.0953324282
