  62
        -98.94281950
 C         -1.4515419311       -1.3361224092        0.6720278086
 C         -1.8901612908       -0.9625608482       -0.6227707612
 C         -2.6919220600        0.2666629824       -0.6929956806
 C         -2.9446293995        0.9720725920        0.4233681698
 C         -3.7883151687        2.2146436325        0.5135018004
 C         -3.0349279278        3.5091216321        0.1813909512
 C         -2.6831525776        3.6997054527       -1.2943120887
 H         -3.5829190177        3.5822508437       -1.8991141388
 H         -2.3447895069        4.7306397226       -1.4124939481
 C         -1.5864169182        2.7581654223       -1.8117650191
 H         -1.0451610986        2.3258594715       -0.9670356793
 H         -0.8605613278        3.3287283021       -2.3945837788
 C         -2.0937919089        1.6263378131       -2.7052845698
 H         -2.5185736786        2.0424536939       -3.6215747996
 H         -1.2416897593        0.9998385227       -2.9818464601
 C         -3.1466256696        0.7266264535       -2.0449592903
 H         -4.0987051892        1.2517478240       -1.9702121301
 H         -3.2822689401       -0.1588730461       -2.6707115508
 H         -2.1224781279        3.5368476012        0.7785253113
 H         -3.6681757073        4.3429658724        0.4930367516
 H         -4.6538737188        2.1145291834       -0.1421290997
 H         -4.1405079287        2.2767354621        1.5455656005
 O         -2.4611934699        0.6074111310        1.6414801596
 C         -1.6864003406       -0.5318531196        1.7893661391
 O         -1.2689299208       -0.7163125306        2.9511890590
 H          1.1846442994       -0.6783241808        0.4917093991
 C          1.3616086788       -1.5082651206       -0.1766876913
 C          0.5131392881       -2.6078109001       -0.1278235220
 C          0.7411875274       -3.6631408397       -0.9997487625
 C          1.7946987075       -3.6098512399       -1.8961096525
 C          2.6499297283       -2.5241484105       -1.9250326918
 C          2.4301460289       -1.4616069508       -1.0546309212
 N          3.2693668997       -0.3378229614       -1.0594853806
 S          3.6529950401        0.4505128176        0.3653366199
 O          4.9403670205        1.0583177669        0.1009907503
 O          3.5904435795       -0.4378608230        1.5015211194
 C          2.4479385810        1.7532328983        0.5104895805
 C          1.5398108109        1.7559306683        1.5497827105
 C          0.6540573216        2.8163868289        1.6645882510
 C          0.6974234024        3.8546545993        0.7470651716
 C          1.6115814424        3.8346900693       -0.2957814683
 C          2.4950558817        2.7756640088       -0.4176560489
 H          3.2312303417        2.7297071987       -1.2027084489
 H          1.6380221830        4.6429489697       -1.0083958379
 H          0.0179664729        4.6866315397        0.8464570420
 H         -0.0626945484        2.8173465589        2.4717827210
 H          1.5342246803        0.9385433980        2.2557526800
 H          4.0632331897       -0.4010896116       -1.6796773105
 H          3.4766151883       -2.4910449907       -2.6184609617
 H          1.9566162870       -4.4310457597       -2.5780196229
 H          0.0826084569       -4.5159977993       -0.9951248130
 C         -0.5990294619       -2.5734086699        0.8920258980
 H         -0.1291428019       -2.4232779807        1.8793656681
 C         -1.3828402028       -3.8737883594        0.9842482072
 C         -2.8064816228       -3.8840339987        1.4538531671
 C         -2.4844284330       -4.2223906381        0.0308399570
 H         -2.5810914037       -5.2517099579       -0.2827656736
 H         -2.7237763825       -3.5062869476       -0.7384680627
 H         -3.2705469722       -2.9306242985        1.6620789876
 H         -3.1219966534       -4.6765238489        2.1159218967
 H         -0.7602808134       -4.6938344500        1.3299218368
 O         -1.6428797012       -1.6139786478       -1.6692157415
