  62
        -98.94383125
 C         -1.5061093572       -1.5779042805       -0.1618786345
 C         -1.3880236637       -0.2694878488        0.3709884823
 C         -2.6516315092        0.3634747985        0.7797835576
 C         -3.8052388683       -0.3227776661        0.7073192584
 C         -5.1632409080        0.1773011049        1.1198162110
 C         -5.8806366878        1.0016066263        0.0421730785
 C         -5.3079317751        2.3996405397       -0.1937613811
 H         -6.0290416710        2.9411486914       -0.8093351382
 H         -5.2336031404        2.9253689322        0.7586330430
 C         -3.9454315647        2.4133500502       -0.9007051836
 H         -3.7717608052        1.4440704384       -1.3738855910
 H         -3.9575541552        3.1594185067       -1.6985296112
 C         -2.7607750656        2.7407137296        0.0085192981
 H         -2.8585858871        3.7635033094        0.3787113618
 H         -1.8472918738        2.6792680537       -0.5872735182
 C         -2.6021244096        1.7985654979        1.2088891308
 H         -1.6205117502        1.9735175581        1.6558634187
 H         -3.3716848922        2.0015867645        1.9532030628
 H         -5.8680508612        0.4392636434       -0.8945540872
 H         -6.9232123068        1.1058313022        0.3517277677
 H         -5.7672963240       -0.7067003815        1.3357276843
 H         -5.0742660917        0.7681113307        2.0319314534
 O         -3.8643173750       -1.6061979026        0.2595963467
 C         -2.7286478427       -2.2530282426       -0.2006742895
 O         -2.9323060611       -3.4178798945       -0.5993201916
 O         -0.3022970600        0.3469436430        0.5080795863
 C         -0.2932197731       -2.3432304096       -0.6626272298
 C          0.8401675016       -2.2008919378        0.3218474892
 C          0.6922841521       -2.7515081505        1.5924685542
 C          1.6923627023       -2.6271663028        2.5367688771
 C          2.8587882238       -1.9460505720        2.2358268575
 C          3.0162697917       -1.3954465984        0.9696903072
 C          2.0146877797       -1.5320043600        0.0185743145
 H          2.1592677292       -1.0895165833       -0.9520518941
 N          4.1936652908       -0.7144560491        0.6348035150
 S          4.2088554498        0.5276301248       -0.4754047828
 O          4.0668310030        0.0032132531       -1.8116639019
 O          5.4579686460        1.2126493396       -0.2083562293
 C          2.8564450979        1.6230086754       -0.0891539058
 C          2.0848314060        2.1188756909       -1.1179314795
 C          1.0848391826        3.0313236869       -0.8276715173
 C          0.8717611609        3.4270391580        0.4821457043
 C          1.6517204947        2.9145526693        1.5057422751
 C          2.6576956431        2.0074408741        1.2206057195
 H          3.2800449866        1.5979389006        1.9999116475
 H          1.4751559880        3.2159217984        2.5261426105
 H          0.0878023877        4.1333913338        0.7071206861
 H          0.4730797627        3.4251614960       -1.6246971707
 H          2.2759905548        1.7768450298       -2.1227150720
 H          4.8344186922       -0.5521857625        1.3968087928
 H          3.6399155428       -1.8409961780        2.9732879803
 H          1.5619720926       -3.0574028712        3.5184167847
 H         -0.2259753881       -3.2714671757        1.8313623713
 H         -0.6038398884       -3.4012331595       -0.6709045730
 C          0.1098519707       -1.9966256117       -2.0880091344
 C         -0.9184349750       -1.6110148080       -3.1079307898
 C          0.0680471727       -0.5961182758       -2.6176548048
 H          0.8589825086       -0.2836127167       -3.2845806631
 H         -0.2743702864        0.1807585621       -1.9525979835
 H         -0.8136025142       -1.9919475260       -4.1127358323
 H         -1.9437695722       -1.5319011059       -2.7762394574
 H          0.9246011461       -2.6224460897       -2.4409980683
