  62
        -98.94055275
 C          1.6914330985        0.2397350678       -0.7993309145
 C          3.0039686512        0.3985615678       -1.3138899265
 C          4.0508386694       -0.4110984824       -0.6812718072
 C          3.7331494123       -1.2355652983        0.3329112243
 C          4.6818784969       -2.1434525659        1.0674561391
 C          5.4575885455       -1.4528394651        2.1975079739
 C          6.5540212926       -0.4897928353        1.7404819273
 H          7.1552266533       -0.2483563315        2.6193544966
 H          7.2074146128       -0.9954523289        1.0287731122
 C          6.0332584583        0.8168761976        1.1255866644
 H          4.9837985756        0.9541149800        1.3966194081
 H          6.5843317237        1.6618459116        1.5447453932
 C          6.1666334843        0.8995789576       -0.3951407702
 H          7.2234832525        0.8979959702       -0.6711741924
 H          5.7340404323        1.8471431437       -0.7265837029
 C          5.4621117928       -0.2328500524       -1.1535857131
 H          5.4282051038        0.0337618941       -2.2129066195
 H          6.0203094544       -1.1625960418       -1.0446544709
 H          4.7473305913       -0.9202558645        2.8341842872
 H          5.9213967755       -2.2368417953        2.8005563459
 H          4.0751489762       -2.9396676091        1.5039407410
 H          5.3839497976       -2.5883864770        0.3616781984
 O          2.4666554872       -1.3499364914        0.8085429155
 C          1.4188538417       -0.6034189826        0.2796291415
 O          0.3330273329       -0.7943222372        0.8554009655
 O          3.2873831909        1.1835451213       -2.2577387272
 C          0.5894387408        1.0813748799       -1.4190181902
 C         -0.2263138574        1.7315987082       -0.3317195002
 C          0.3850533883        2.6570103480        0.5100485846
 C         -0.3167322561        3.2309254821        1.5522054738
 C         -1.6377131344        2.8884933855        1.7820884889
 C         -2.2558715559        1.9632620456        0.9485679892
 C         -1.5540143339        1.4055132024       -0.1113198817
 H         -2.0516464091        0.7004880814       -0.7541811910
 N         -3.5709003131        1.5653187171        1.1962913010
 S         -4.5812996391        0.7641436436        0.1554913404
 O         -4.3681580560        1.1777697736       -1.2128557664
 O         -5.9081382539        1.0071720032        0.6813412162
 C         -4.2325670069       -0.9821375436        0.3060791759
 C         -3.0348288933       -1.4660287467        0.7912482057
 C         -2.8467751671       -2.8399916984        0.8467175785
 C         -3.8449724076       -3.7024670374        0.4250126597
 C         -5.0448583448       -3.2001527405       -0.0562941563
 C         -5.2396616789       -1.8307196726       -0.1170172759
 H         -6.1580378011       -1.3976433052       -0.4799934714
 H         -5.8242509411       -3.8691363275       -0.3842751010
 H         -3.6875255259       -4.7686418193        0.4709923172
 H         -1.9062368946       -3.2172447675        1.2161939611
 H         -2.2437687613       -0.8047158825        1.1058968470
 H         -4.0460826500        1.9994091640        1.9702204621
 H         -2.1824058033        3.3229736324        2.6062210427
 H          0.1690311682        3.9470142029        2.1981300200
 H          1.4231697019        2.9111295384        0.3425934094
 H          1.1246842272        1.8735818415       -1.9688974996
 C         -0.2621980881        0.3427720764       -2.4404626615
 C          0.3155211870       -0.7539739089       -3.2821722052
 C         -0.7140611789       -1.0722494001       -2.2415037182
 H         -1.7106966227       -1.3381470650       -2.5647373525
 H         -0.4006632435       -1.5781944212       -1.3422207859
 H          0.0325376055       -0.8059234631       -4.3227293290
 H          1.3393172654       -1.0419699733       -3.0920334811
 H         -0.9664007608        1.0073885680       -2.9334165998
