  62
        -98.94702859
 C          1.5144095385        1.0794496123        0.0773609346
 C          2.5260032152        0.6188361651        0.9502261596
 C          3.0908858921       -0.7001596511        0.6402212082
 C          2.5942702059       -1.4005406167       -0.3964739090
 C          3.1006459080       -2.7404267642       -0.8446837321
 C          4.2013824387       -2.5963859049       -1.9049993550
 C          5.3028154956       -1.6088985304       -1.5194230690
 H          6.0389227996       -1.6115539756       -2.3260092311
 H          4.8784235214       -0.6034943417       -1.4729036284
 C          6.0006220765       -1.9251450957       -0.1893120067
 H          7.0787757849       -1.8175990846       -0.3247856188
 H          5.8107818491       -2.9617477724        0.0913269688
 C          5.6042229841       -1.0071944804        0.9684281023
 H          6.3061542952       -1.1731935384        1.7899591333
 H          5.7029820809        0.0362198485        0.6588436097
 C          4.1906449021       -1.2105052732        1.5289153266
 H          4.0350624250       -2.2653214153        1.7665461406
 H          4.1151531369       -0.6365334651        2.4575748953
 H          3.7423587044       -2.2532668793       -2.8349261375
 H          4.6377214563       -3.5807309235       -2.0839126778
 H          3.4795525609       -3.2854716310        0.0179785794
 H          2.2620864695       -3.2954168775       -1.2693612380
 O          1.5962798273       -0.9419847883       -1.1910828200
 C          1.0202211139        0.2962209569       -0.9668918003
 O          0.1020681044        0.5885054361       -1.7566454620
 H         -0.2997428750        0.5800762339        1.8365178598
 C         -1.0371042802        1.1904748571        1.3288174014
 C         -0.6156504427        2.2368692695        0.5168250591
 C         -1.5809267739        3.0071542812       -0.1183758515
 C         -2.9259069511        2.7083780509        0.0213183690
 C         -3.3343419669        1.6241283144        0.7765854131
 C         -2.3767824649        0.8657969750        1.4356702053
 N         -2.7919727089       -0.3089824277        2.1327673129
 S         -2.5382043005       -1.6657540059        1.1522455133
 O         -3.0519703803       -2.7927695899        1.9033139842
 O         -1.1501092618       -1.7774003325        0.7537315816
 C         -3.5862746179       -1.3199578957       -0.2388585843
 C         -4.9236144482       -1.6541812325       -0.1440275798
 C         -5.7678838905       -1.3417205238       -1.1967218657
 C         -5.2625359667       -0.6971516452       -2.3162658497
 C         -3.9181591310       -0.3676259215       -2.3930769276
 C         -3.0647708800       -0.6789134975       -1.3451431791
 H         -2.0148051657       -0.4275057476       -1.3771491381
 H         -3.5208184048        0.1368000077       -3.2591888012
 H         -5.9196747126       -0.4490535167       -3.1348545676
 H         -6.8137079441       -1.5972472188       -1.1403164872
 H         -5.2657036195       -2.1548247489        0.7467865444
 H         -2.2741430562       -0.4526530735        2.9908122980
 H         -4.3741248793        1.3532976396        0.8599745948
 H         -3.6621609242        3.3116448344       -0.4865109326
 H         -1.2773084128        3.8326494464       -0.7412013577
 C          0.8688258211        2.4302109736        0.3366747795
 H          1.2983045584        2.7862560731        1.2850927836
 C          1.2238498266        3.4093840301       -0.7623684606
 C          1.2877936038        4.8792503123       -0.4755589758
 C          2.5494147176        4.1059450055       -0.7105683586
 H          3.0875254557        4.2597041623       -1.6338328424
 H          3.1871267486        3.8928961282        0.1350776345
 H          0.9622788303        5.5682563016       -1.2400546291
 H          1.0728335373        5.2018543252        0.5318365201
 H          0.8642779951        3.0890360891       -1.7339134745
 O          2.9301887547        1.2775604808        1.9489663479
