  62
        -98.93746103
 C         -2.3599301292       -0.5519868580        0.0507375300
 C         -3.4446241598       -0.4828610484        0.9544308642
 C         -4.4728029711        0.5346644634        0.6758428362
 C         -4.3341387356        1.3356341029       -0.3974522951
 C         -5.1892132957        2.4787207047       -0.9037138916
 C         -6.6077192162        2.6867609903       -0.3793867573
 C         -7.6015184812        1.5933370048       -0.7698680697
 H         -8.5475681518        1.7949988781       -0.2626824718
 H         -7.7814719178        1.6554629314       -1.8460984368
 C         -7.1659078918        0.1637458724       -0.4580975854
 H         -6.2756031740       -0.0840722058       -1.0397349243
 H         -7.9628045944       -0.5080366237       -0.7887314723
 C         -6.8930916113       -0.1301319457        1.0157303288
 H         -6.7517124877       -1.2097953753        1.1148355351
 H         -7.7628442327        0.1488066262        1.6137112660
 C         -5.6494680935        0.5549266015        1.6086347386
 H         -5.8707226596        1.5709840931        1.9264857984
 H         -5.3459920652       -0.0073883182        2.4966010975
 H         -6.9641192688        3.6253599658       -0.8125684678
 H         -6.5953817179        2.8230603289        0.6979225732
 H         -5.2235178448        2.3639537940       -1.9917651183
 H         -4.6116528120        3.3891892520       -0.7090177717
 O         -3.2589959633        1.2395397063       -1.2340498846
 C         -2.2559418899        0.3038071267       -1.0437168720
 O         -1.3542283365        0.3366980256       -1.9019972793
 O         -3.5476772062       -1.2341115242        1.9616211351
 C         -1.2733727259       -1.5861635240        0.2834675313
 C          0.0500825642       -0.8943179430        0.4964020819
 C          0.1633918379        0.0170562549        1.5439018258
 C          1.3518599596        0.6792947508        1.7800142150
 C          2.4558586923        0.4509237197        0.9761542854
 C          2.3572373545       -0.4602563653       -0.0650494071
 C          1.1613728174       -1.1308910634       -0.2955580754
 H          1.1023660532       -1.8337323223       -1.1118522092
 N          3.4681716841       -0.6895806736       -0.8917102116
 S          4.9688255881       -0.9509576093       -0.1934889116
 O          5.7173351309       -1.6991912047       -1.1798082228
 O          4.8474937148       -1.5554466480        1.1128397132
 C          5.6708146409        0.6790061442       -0.0497785940
 C          5.7259928503        1.4679169102       -1.1820432865
 C          6.2839846721        2.7328436085       -1.0894231898
 C          6.7774213805        3.1839523413        0.1258615454
 C          6.7174471738        2.3786289822        1.2527700760
 C          6.1594528353        1.1125298610        1.1670295755
 H          6.0867488179        0.4540247300        2.0180154194
 H          7.1017183884        2.7310970620        2.1964821065
 H          7.2112709256        4.1690506512        0.1946557565
 H          6.3316607394        3.3621845965       -1.9635721779
 H          5.3339946981        1.0808491068       -2.1078122600
 H          3.2943515650       -1.3365883549       -1.6466858752
 H          3.3853775184        0.9673402622        1.1518110111
 H          1.4216355661        1.3834672283        2.5952687690
 H         -0.6995212643        0.1983641737        2.1702678602
 H         -1.5467660841       -2.0893818601        1.2225196290
 C         -1.2653138605       -2.6103502626       -0.8312079930
 C         -0.6936408899       -3.9750758252       -0.5915420526
 C         -2.1747797066       -3.7967752424       -0.7333618456
 H         -2.6542407020       -4.1545477516       -1.6321969576
 H         -2.7885545819       -3.8805394952        0.1514832186
 H         -0.1570248833       -4.4598425468       -1.3934707394
 H         -0.2983978332       -4.1850494808        0.3910026049
 H         -1.1338266577       -2.1635514048       -1.8105251955
