  62
        -98.93772916
 C         -1.8103821708       -1.2391117643       -0.3562137137
 C         -1.9108182246        0.0696497900        0.1676481697
 C         -3.2420257642        0.4911466628        0.6525079296
 C         -4.2656009913       -0.3801087037        0.5816724545
 C         -5.7020078614       -0.1705705909        0.9827329908
 C         -6.4829504340        0.6841745941       -0.0274967844
 C         -5.7502747169        1.9321370727       -0.5120055562
 H         -4.8086029414        1.6358712194       -0.9771799233
 H         -6.3641198274        2.3962757172       -1.2884604134
 C         -5.4792169149        2.9844384779        0.5607284429
 H         -6.4263738452        3.2904150685        1.0105630970
 H         -5.0544240924        3.8571566702        0.0581493558
 C         -4.5198151057        2.5692451967        1.6789248602
 H         -5.0178169193        1.9421925457        2.4137816458
 H         -4.2190550684        3.4806098126        2.2040910480
 C         -3.2366507088        1.8987404072        1.1988811396
 H         -2.7750300326        2.5234954156        0.4258598600
 H         -2.5174012591        1.8878205606        2.0269168672
 H         -6.6986250225        0.0633449201       -0.9006418895
 H         -7.4338684163        0.9695488126        0.4258131849
 H         -6.1613741801       -1.1607246754        1.0280285402
 H         -5.7539330843        0.2629665815        1.9771429883
 O         -4.1183805431       -1.6363306447        0.0686233479
 C         -2.9076286756       -2.0968149190       -0.4086678525
 O         -2.9303588757       -3.2677762332       -0.8415305580
 O         -0.9382671910        0.8642580974        0.2324682001
 C         -0.4862268664       -1.7516351537       -0.8873715148
 C          0.5915016241       -1.7155869315        0.1701333221
 C          0.2728346335       -1.9166590670        1.5094227922
 C          1.2486829373       -1.8716901109        2.4877953480
 C          2.5716950568       -1.6426690643        2.1525875673
 C          2.9059179305       -1.4693366807        0.8177912008
 C          1.9226079889       -1.5055461476       -0.1630453341
 H          2.2021621605       -1.3612452696       -1.1956186174
 N          4.2591872060       -1.2332162466        0.4791509726
 S          4.8246313358        0.3082123598        0.8257224046
 O          6.2065332402        0.3282162397        0.4028567545
 O          4.5717393399        0.5905827250        2.2144463150
 C          3.8530317694        1.3685014265       -0.2280791954
 C          4.3936017332        1.8098137156       -1.4204740779
 C          3.5987509118        2.5458529146       -2.2837463311
 C          2.2771330275        2.8069964652       -1.9521093134
 C          1.7478563417        2.3532873717       -0.7537828348
 C          2.5431497449        1.6293813616        0.1206067941
 H          2.1512509222        1.2659656150        1.0566375043
 H          0.7145565415        2.5222145346       -0.4958182613
 H          1.6532732657        3.3658512729       -2.6323616950
 H          4.0065437311        2.9048429826       -3.2152049283
 H          5.4222421608        1.5742087144       -1.6418393004
 H          4.4684146275       -1.4430245573       -0.4878680084
 H          3.3425218355       -1.5816900468        2.9030998299
 H          0.9763574712       -2.0164719136        3.5225637724
 H         -0.7582484307       -2.0982975772        1.7809074261
 H         -0.6587285129       -2.8038425283       -1.1601266950
 C         -0.0990985836       -0.9794550975       -2.1349857330
 C          0.5997597198       -1.6603605934       -3.2726063672
 C         -0.8352282458       -1.2517008759       -3.4108740599
 H         -1.0780158656       -0.4206269193       -4.0555303242
 H         -1.5915377236       -2.0233526322       -3.3898213593
 H          1.3429046508       -1.1066899380       -3.8270637485
 H          0.8141363003       -2.7141282076       -3.1736433019
 H          0.1628835532        0.0498158303       -1.9173542190
