  62
        -98.92959655
 C          2.4605228207        0.9179870587        0.7553669654
 C          2.7234056641        0.3462193356       -0.5114614440
 C          3.4122348681       -0.9636035695       -0.5204686468
 C          3.7276087872       -1.5439054417        0.6514030434
 C          4.3902060096       -2.8752315313        0.8853240866
 C          3.4317173176       -4.0588665474        0.6726449778
 C          2.5333821776       -3.9472730518       -0.5567372732
 H          1.8250103623       -4.7793662554       -0.5271076381
 H          1.9518679595       -3.0252819437       -0.4950336988
 C          3.2587545847       -3.9999859867       -1.8991599610
 H          2.4955938550       -3.9855570282       -2.6814954069
 H          3.7973491093       -4.9470579099       -1.9779598036
 C          4.2413203085       -2.8600089029       -2.1736683625
 H          4.4992879498       -2.9021721084       -3.2359800601
 H          5.1689562624       -3.0024567965       -1.6258565309
 C          3.6857194550       -1.4620122290       -1.9191154052
 H          4.3701012842       -0.7299973041       -2.3653274477
 H          2.7439246992       -1.3444755917       -2.4675023867
 H          2.7854373849       -4.1304611715        1.5508459999
 H          4.0221436021       -4.9745721255        0.6130691349
 H          4.7237438951       -2.8809552919        1.9254261759
 H          5.2699126281       -2.9686494757        0.2555637184
 O          3.4166612516       -0.9727170065        1.8511226707
 C          2.7743512122        0.2457554362        1.9380345318
 O          2.5310858756        0.6172698173        3.1045055679
 O          2.4029906076        0.8851765564       -1.6019002879
 C          1.7492283650        2.2521517475        0.9003697860
 C          0.5450985255        2.2966630312       -0.0092538076
 C          0.3557680551        3.2540426868       -0.9957230861
 C         -0.7823715757        3.2297962230       -1.7833774297
 C         -1.7502110422        2.2585072819       -1.6090412502
 C         -1.5727959242        1.2965834653       -0.6223636877
 C         -0.4375526444        1.3302839235        0.1727070980
 H         -0.2967390496        0.5812288357        0.9439589873
 N         -2.5391145666        0.2822724088       -0.4456588313
 S         -4.1441694942        0.7857975523       -0.2730766607
 O         -4.6398270251        1.1909230163       -1.5636968790
 O         -4.2471072857        1.7719182977        0.7809914659
 C         -4.9246963854       -0.7374312851        0.2208138104
 C         -5.2454082871       -0.9408110935        1.5491870841
 C         -5.8347915285       -2.1394203553        1.9201489067
 C         -6.0876117805       -3.1096207987        0.9622396179
 C         -5.7591143645       -2.8906591963       -0.3676081053
 C         -5.1717564933       -1.6939542231       -0.7456271682
 H         -4.9078726099       -1.4764691311       -1.7672999718
 H         -5.9593843832       -3.6470124624       -1.1092525828
 H         -6.5464467144       -4.0411765119        1.2537917911
 H         -6.0939315477       -2.3109792527        2.9525452722
 H         -5.0367711976       -0.1557754023        2.2585013901
 H         -2.2952995578       -0.3244359070        0.3266029103
 H         -2.6398902628        2.2351994854       -2.2168605049
 H         -0.9153360639        3.9770723076       -2.5513743575
 H          1.1080853116        4.0066140693       -1.1649271194
 H          1.3785823018        2.2614782795        1.9394874218
 C          2.6580041378        3.4641385355        0.7602886864
 C          4.1116767390        3.3823882318        1.1168665514
 C          3.6997939262        3.5704497522       -0.3107802091
 H          3.8665934613        4.5351818982       -0.7675033104
 H          3.8005046324        2.7414469836       -0.9926279354
 H          4.5582249981        4.2145524278        1.6401520628
 H          4.4997383834        2.4196437973        1.4169613888
 H          2.1486700911        4.3821408956        1.0378963120
