  62
        -98.94572622
 C          0.9892747196        1.2078931024       -0.3808571392
 C          1.9369381301        1.3120985544        0.6694102171
 C          2.7317596276        0.1131641720        0.9605007293
 C          2.4944104538       -1.0125092485        0.2638237143
 C          3.2439719199       -2.3021284415        0.4320428809
 C          4.4477065999       -2.3746592316       -0.5176963971
 C          5.3300226788       -1.1268379550       -0.4884998916
 H          6.1640733749       -1.3013985622       -1.1714938534
 H          4.7625909646       -0.2805491154       -0.8820294808
 C          5.8739960732       -0.7671904736        0.9011268467
 H          6.9339160822       -0.5207687485        0.8097604998
 H          5.7981954310       -1.6297642426        1.5641937172
 C          5.1930701801        0.4356600497        1.5572155002
 H          5.1828563158        1.2766594210        0.8593307416
 H          5.7913040483        0.7354277760        2.4218465180
 C          3.7594903887        0.2051417193        2.0530086776
 H          3.7263199104       -0.6830167224        2.6882671644
 H          3.4730790464        1.0688629515        2.6605802792
 H          5.0432293244       -3.2505487076       -0.2539427005
 H          4.0771947926       -2.5077714827       -1.5364724215
 H          3.5749870444       -2.3897109833        1.4652882918
 H          2.5646339070       -3.1270504733        0.2099095359
 O          1.5645176855       -1.0871832117       -0.7178714308
 C          0.7910642856        0.0113797261       -1.0715092420
 O         -0.0100681227       -0.2288994417       -1.9949290094
 H         -1.4794908917        0.3105366041       -0.2035602134
 C         -1.8636531848        1.2218241398        0.2240242137
 C         -1.1627049562        2.4083292924        0.0760560353
 C         -1.6995470961        3.5688497560        0.6234031391
 C         -2.9009444312        3.5347948097        1.3077709418
 C         -3.5764315752        2.3403706432        1.4863618946
 C         -3.0468936047        1.1754578095        0.9454410630
 N         -3.6844089065       -0.0639499370        1.1064657171
 S         -2.7430928628       -1.4226926978        1.3868258960
 O         -3.6374141309       -2.3407492374        2.0653527478
 O         -1.5298521743       -1.0925437098        2.1007214508
 C         -2.3683230725       -2.0930487146       -0.2165852472
 C         -1.1769999223       -2.7693945485       -0.3794813153
 C         -0.8917898306       -3.3404921524       -1.6082468588
 C         -1.8020222337       -3.2288730329       -2.6462865668
 C         -2.9970920272       -2.5508569820       -2.4647963248
 C         -3.2889780415       -1.9779012566       -1.2379980021
 H         -4.2033413111       -1.4347718006       -1.0651467708
 H         -3.6989968453       -2.4603277237       -3.2783398529
 H         -1.5728997806       -3.6661557160       -3.6053867307
 H          0.0446268796       -3.8551118147       -1.7535568414
 H         -0.4877602537       -2.8136938200        0.4500725977
 H         -4.5055466530       -0.0521802735        1.6944002591
 H         -4.4998668534        2.3067038943        2.0440974048
 H         -3.3066232416        4.4433209653        1.7260555741
 H         -1.1616069725        4.4995464835        0.5236562459
 C          0.1546524033        2.4425330005       -0.6658439788
 H          0.7349045953        3.2857513475       -0.2649984543
 C         -0.0901705923        2.6882547667       -2.1430152861
 C         -0.2952495736        4.0870633840       -2.6382214929
 C          0.9716485796        3.3552918176       -2.9630346414
 H          1.1314805219        3.0123059212       -3.9738924826
 H          1.8775596067        3.6552860457       -2.4561527265
 H         -0.2417128752        4.8905221295       -1.9197768723
 H         -1.0114439585        4.2510190355       -3.4283707598
 H         -0.6579026199        1.8965459642       -2.6142861381
 O          2.1141594852        2.3717922479        1.3314272671
