  62
        -98.92962168
 C         -2.0773164393       -1.3758240708        0.0987794598
 C         -2.0700564097       -0.2830356907       -0.8037998700
 C         -2.6779306098        0.9666054892       -0.3058278696
 C         -3.1651820995        1.0183084889        0.9454121505
 C         -3.8686638295        2.1928571787        1.5648738209
 C         -5.3147286596        2.2832655185        1.0369170013
 C         -5.6025303900        3.5265248786        0.1950678416
 H         -6.5669407901        3.3744212986       -0.2939808782
 H         -5.7004176100        4.3888521685        0.8576578318
 C         -4.5539854804        3.8696414590       -0.8673430986
 H         -5.0111754006        4.5947997890       -1.5439291184
 H         -3.7060401203        4.3716402590       -0.3990843088
 C         -4.0263292304        2.6899962192       -1.6941121390
 H         -3.9046293907        3.0251420694       -2.7261998489
 H         -4.7500245103        1.8747198291       -1.7081854789
 C         -2.6590141502        2.1469326993       -1.2373944294
 H         -2.1073131504        1.7988581396       -2.1163078196
 H         -2.0713295502        2.9525409993       -0.7872295194
 H         -5.5187633296        1.3872103386        0.4472373712
 H         -6.0098377994        2.2713569183        1.8776700215
 H         -3.8665746992        2.0379457385        2.6440041509
 H         -3.3197401297        3.1053932888        1.3427520609
 O         -3.1424579591       -0.0483174613        1.7875957203
 C         -2.5899370690       -1.2533702911        1.3923916900
 O         -2.6231352087       -2.1417182513        2.2687096698
 H          0.4453612105       -0.7972274004       -0.1885099508
 C          0.7885191708       -1.7062933604        0.2818025090
 C         -0.0593001491       -2.8015096706        0.3675053490
 C          0.4037435113       -3.9596901306        0.9809097587
 C          1.6928698114       -4.0224018505        1.4796456883
 C          2.5378550812       -2.9325581104        1.3840599883
 C          2.0762073409       -1.7596254604        0.7936920086
 N          2.8967155207       -0.6226696502        0.7531544986
 S          2.5827739803        0.6401879499       -0.3148953011
 O          1.4420807903        1.3790709397        0.1652088794
 O          2.5284647200        0.1502350101       -1.6736001912
 C          4.0647450902        1.6022440801       -0.0736622013
 C          5.0720522599        1.5575372704       -1.0184293416
 C          6.2297239299        2.2883273205       -0.8000627318
 C          6.3609304901        3.0445922303        0.3546703783
 C          5.3404344203        3.0811674100        1.2936565586
 C          4.1800663904        2.3544450499        1.0803278988
 H          3.3568747706        2.3584489997        1.7758815890
 H          5.4444944105        3.6724762799        2.1890237487
 H          7.2627030900        3.6117385604        0.5229839182
 H          7.0226792397        2.2647355708       -1.5299519720
 H          4.9215232898        0.9602474205       -1.9032373416
 H          3.8823251608       -0.8301087601        0.8305482683
 H          3.5420262213       -2.9786574803        1.7762507380
 H          2.0432029517       -4.9289318606        1.9491457081
 H         -0.2588001086       -4.8071477007        1.0779180587
 C         -1.4557428992       -2.7309680807       -0.2001219606
 H         -2.0664190690       -3.4654885709        0.3514053794
 C         -1.5016222696       -3.1199312104       -1.6704096707
 C         -0.3206110598       -3.0095878701       -2.5819673309
 C         -0.8076458895       -4.3593318303       -2.1537284811
 H         -1.3120788596       -4.9787623502       -2.8797347910
 H         -0.2035500192       -4.9058249703       -1.4459997313
 H         -0.5005236101       -2.6805915400       -3.5939886708
 H          0.6044798002       -2.6333979200       -2.1712566111
 H         -2.4680472297       -2.9003923305       -2.1123591604
 O         -1.5995012400       -0.3227456504       -1.9696056701
