  62
        -98.94404638
 C         -2.1861718153       -1.3737520694       -0.0929065072
 C         -2.5299190159       -0.3322006421       -0.9884701613
 C         -3.8799826423        0.2303042968       -0.8291813466
 C         -4.6987445071       -0.2644830971        0.1161418204
 C         -6.0746107281        0.2523717188        0.4188455396
 C         -6.0338445147        1.3388907657        1.5025233081
 C         -4.9932770055        2.4292550864        1.2463537896
 H         -5.0775399474        3.1560203944        2.0572838490
 H         -3.9937293998        1.9925332490        1.3107187761
 C         -5.1452229542        3.1484517501       -0.1013081610
 H         -6.1470248513        2.9823092702       -0.4992260641
 H         -5.0350482924        4.2227417952        0.0612387748
 C         -4.1093625817        2.7496568699       -1.1541956832
 H         -3.1054470851        2.8259644106       -0.7279884243
 H         -4.1695345524        3.4661787200       -1.9779043561
 C         -4.2739374921        1.3474708236       -1.7539962549
 H         -5.2994043408        1.2152802873       -2.1048013041
 H         -3.6037090351        1.2745876842       -2.6155219894
 H         -7.0250510991        1.7899121432        1.5764808752
 H         -5.8035508051        0.8652627973        2.4596251680
 H         -6.5169015365        0.6499040410       -0.4925148929
 H         -6.6839414480       -0.5801277823        0.7746588994
 O         -4.3403021093       -1.2763947216        0.9462958436
 C         -3.0784152530       -1.8395256090        0.8770679255
 O         -2.8738260919       -2.7405785395        1.7146030364
 H          0.6777760106       -0.1517698130       -1.4496189562
 C          0.8607923821       -0.1428682242       -0.3870193663
 C          0.1902502428       -1.0366010811        0.4342172070
 C          0.4211963652       -0.9842731039        1.8058938219
 C          1.2920207909       -0.0530099372        2.3409397828
 C          1.9475256443        0.8485310638        1.5207362947
 C          1.7224860480        0.8047611038        0.1510154263
 N          2.3741314581        1.7217309575       -0.6877686194
 S          3.9908764160        2.0460454000       -0.4250605401
 O          4.1308076862        2.9861432325        0.6597151209
 O          4.5042655980        2.4802344973       -1.7052694416
 C          4.7122876514        0.4809212340        0.0382348412
 C          4.6383980021       -0.5617214567       -0.8642545874
 C          5.1692544515       -1.7916947673       -0.5121795473
 C          5.7603338626       -1.9582842297        0.7311092338
 C          5.8299224883       -0.9009968675        1.6245385870
 C          5.3000913032        0.3316838033        1.2776200757
 H          5.3320133607        1.1796853784        1.9422062856
 H          6.2915138398       -1.0327555899        2.5898728898
 H          6.1696993424       -2.9182831106        1.0034656575
 H          5.1176629691       -2.6154170522       -1.2058632362
 H          4.1770887198       -0.3981272963       -1.8248724750
 H          2.1589850592        1.6121041016       -1.6672051063
 H          2.6131402536        1.5953198941        1.9222302087
 H          1.4590407718       -0.0237252727        3.4069241781
 H         -0.1056304048       -1.6746757530        2.4497030198
 C         -0.8113386671       -2.0260297214       -0.1104929806
 H         -0.8724155438       -2.8651469207        0.5947151783
 C         -0.4498631376       -2.5702000416       -1.4771077842
 C          0.6834943864       -3.5427405693       -1.5973003685
 C         -0.7281946807       -4.0096847119       -1.7840761580
 H         -1.0605707792       -4.2688813206       -2.7782439050
 H         -1.1770283430       -4.6091759005       -1.0054110660
 H          1.1940329955       -3.8256911514       -0.6893320592
 H          1.3226354582       -3.4852317129       -2.4649232602
 H         -0.5974952568       -1.8600165804       -2.2802063970
 O         -1.7654963761        0.1127686761       -1.8848242401
