  62
        -98.94416538
 C         -2.1963021823       -0.7669119770       -0.0543955416
 C         -2.9133089161       -0.1150958638        0.9763432546
 C         -3.7034986355        1.0513117278        0.5665923517
 C         -3.6733407549        1.4602966264       -0.7151482524
 C         -4.4031254632        2.6476863346       -1.2823143056
 C         -5.8604171016        2.3577678839       -1.6670490231
 C         -6.8223869840        2.1880135612       -0.4905310241
 H         -6.7262380022        3.0408944807        0.1821717122
 H         -7.8346052618        2.2081568693       -0.8991604954
 C         -6.6351589809        0.8842233700        0.2978719355
 H         -6.0538073804        0.1774829439       -0.2987591409
 H         -7.6094479985        0.4246177342        0.4784624264
 C         -5.9581270799        1.0568263203        1.6576193542
 H         -6.5955989027        1.6558373442        2.3117256113
 H         -5.8442286620        0.0690186443        2.1115352438
 C         -4.5718288839        1.7115210295        1.5947431676
 H         -4.6679161011        2.7769758629        1.3861671710
 H         -4.0889557250        1.5874620594        2.5674637725
 H         -6.2090939015        3.1952672530       -2.2755936499
 H         -5.8848868779        1.4609920289       -2.2903244771
 H         -3.8613417021        2.9431799163       -2.1833410515
 H         -4.3706018152        3.4731614230       -0.5705771543
 O         -2.9339932401        0.8325073003       -1.6678370853
 C         -2.1944624343       -0.3038708449       -1.3705318365
 O         -1.5876314605       -0.7898448729       -2.3424953689
 O         -2.8864629773       -0.4843826409        2.1823124405
 C         -1.3784312441       -1.9993828877        0.2821821237
 C          0.0780595385       -1.7776087612       -0.0458679812
 C          0.8696038638       -2.7274359679       -0.6777200449
 C          2.2047841138       -2.4681792410       -0.9357816589
 C          2.7793200551       -1.2653084633       -0.5704266617
 C          2.0012726228       -0.3131223643        0.0756044908
 C          0.6663148976       -0.5783222691        0.3377714379
 H          0.0623319493        0.1650130286        0.8449639752
 N          2.5744314362        0.9173160927        0.4447201909
 S          3.9913311560        0.8873163556        1.3471114567
 O          4.0759934777       -0.3061414968        2.1568421778
 O          4.0143310570        2.1482347500        2.0561522929
 C          5.2825549225        0.8871830379        0.1215650528
 C          5.3107334265        1.9203929884       -0.7944931262
 C          6.3132030476        1.9388973181       -1.7509612461
 C          7.2662413237        0.9313447871       -1.7733800607
 C          7.2261581854       -0.0970601806       -0.8443944281
 C          6.2255534370       -0.1219167038        0.1147365228
 H          6.1509597813       -0.9035687995        0.8538359156
 H          7.9680750342       -0.8790786611       -0.8634965272
 H          8.0448619305        0.9482613602       -2.5195234752
 H          6.3474662499        2.7368693132       -2.4751293229
 H          4.5535858275        2.6848964623       -0.7407331356
 H          1.9139872074        1.5652753276        0.8492440821
 H          3.8160732137       -1.0571641320       -0.7779820611
 H          2.8055893852       -3.2133910400       -1.4342304242
 H          0.4405426070       -3.6707810282       -0.9726551144
 H         -1.4639897848       -2.1177701927        1.3734718514
 C         -1.9715346652       -3.2221423611       -0.3866960868
 C         -1.8467209943       -4.5718397845        0.2526770564
 C         -3.1714102390       -3.8720594367        0.2323646984
 H         -3.9470839751       -4.2493324075       -0.4170170474
 H         -3.5425598082       -3.4494373662        1.1548937218
 H         -1.7151819892       -5.4339053797       -0.3837050262
 H         -1.3210235967       -4.6328372773        1.1936839529
 H         -1.9383431161       -3.1597756096       -1.4686437690
