  62
        -98.94024727
 C          2.4792965954        1.1068423808        0.0653334097
 C          2.6946416147        0.0207165742       -0.8165560338
 C          4.0946454770       -0.3956059440       -0.9852482351
 C          5.0647268364        0.2706661169       -0.3327432852
 C          6.5227096782       -0.0835202641       -0.3694456157
 C          6.8868390753       -1.0510540419        0.7655755352
 C          5.9484676826       -2.2526984910        0.8777102692
 H          4.9547810379       -1.9039317004        1.1683191750
 H          6.3193607693       -2.8798739518        1.6912778990
 C          5.8344112282       -3.0910554574       -0.4031239515
 H          5.8965444685       -4.1480908168       -0.1362147427
 H          6.6742264809       -2.8738430255       -1.0640664411
 C          4.5244354129       -2.9022548771       -1.1705530210
 H          3.6780758828       -3.0258653123       -0.4899197335
 H          4.4553185928       -3.6906514197       -1.9247872378
 C          4.3640800901       -1.5602338407       -1.8959653636
 H          3.4889436597       -1.6374703658       -2.5478464827
 H          5.2409259780       -1.3698706126       -2.5181167338
 H          6.8557627117       -0.5032677815        1.7102478022
 H          7.9093023691       -1.3989094451        0.6079025260
 H          6.7581970390       -0.5312288338       -1.3328462451
 H          7.1021970896        0.8337906971       -0.2531464245
 O          4.8190028019        1.3255424202        0.4865548100
 C          3.5246935401        1.7613591874        0.7158400598
 O          3.4363272229        2.7219589479        1.5076858070
 H         -1.4831763329        0.8644191690       -0.4544719929
 C         -1.0788900326        0.2519360700        0.3337677457
 C          0.1949644425        0.4822523628        0.8272468136
 C          0.6700263821       -0.3348825550        1.8504697847
 C         -0.1054874037       -1.3607906278        2.3537735454
 C         -1.3800467669       -1.5833169431        1.8624953101
 C         -1.8656683227       -0.7717107020        0.8449337009
 N         -3.1462755253       -0.9831662222        0.3100122753
 S         -4.0434444539        0.3549966750       -0.1924690354
 O         -3.6556989297        0.7051833004       -1.5354450047
 O         -3.9567748057        1.4082416768        0.7939061598
 C         -5.6840664099       -0.3450316053       -0.2050615693
 C         -6.5181641746       -0.1375435937        0.8772979750
 C         -7.7814791291       -0.7077854153        0.8693438091
 C         -8.1859448377       -1.4741778230       -0.2132971236
 C         -7.3378547721       -1.6732332031       -1.2927706877
 C         -6.0740688027       -1.1047105566       -1.2920035515
 H         -5.3847145721       -1.2237015280       -2.1116998948
 H         -7.6568181930       -2.2674563419       -2.1338209220
 H         -9.1695647017       -1.9166450527       -0.2173926177
 H         -8.4442360043       -0.5520575094        1.7052836393
 H         -6.1638427044        0.4727590446        1.6924058075
 H         -3.7025337587       -1.6249966284        0.8578417619
 H         -1.9884468509       -2.3822605753        2.2583194107
 H          0.2811970122       -1.9885620942        3.1427290149
 H          1.6619171063       -0.1537094692        2.2433370937
 C          1.0683722318        1.6036642886        0.3186999481
 H          1.1474042525        2.3581521626        1.1162998919
 C          0.5220002154        2.2723148356       -0.9256255262
 C         -0.5018890385        3.3600551966       -0.8119162734
 C          0.9018680860        3.6912985973       -1.2186563568
 H          1.0895938311        3.9741773234       -2.2435012515
 H          1.5383058179        4.1906091621       -0.5023371533
 H         -0.8268174445        3.6396154469        0.1793805048
 H         -1.2843509754        3.4091786730       -1.5549588273
 H          0.4473294028        1.5901609961       -1.7655564619
 O          1.7688984935       -0.5723548693       -1.4297585698
