  62
        -98.94318726
 C         -1.8209056330       -0.0862696302        0.2979983601
 C         -2.7459971089       -0.6588933187       -0.6095038562
 C         -4.0179908746        0.0615244380       -0.7624461083
 C         -4.2276570111        1.2117125869       -0.0988727064
 C         -5.4589902465        2.0725297441       -0.1798637213
 C         -6.5973321890        1.6214548255        0.7456626937
 C         -7.3207791869        0.3454954273        0.3130755681
 H         -8.2235825100        0.2675357277        0.9222765937
 H         -7.6369132539        0.4434032334       -0.7259206307
 C         -6.4969714703       -0.9384055071        0.4843618284
 H         -7.1154440322       -1.7075056317        0.9524064631
 H         -5.6600175615       -0.7464820294        1.1597968863
 C         -5.9561515747       -1.5235610814       -0.8202455880
 H         -6.7886535049       -1.8427333555       -1.4511693208
 H         -5.3589605793       -2.4060609452       -0.5777607587
 C         -5.0736550790       -0.5612082540       -1.6258609850
 H         -4.5686971025       -1.1321968024       -2.4085244280
 H         -5.6861053258        0.2089275315       -2.0939585266
 H         -7.3276325560        2.4330883398        0.7829054392
 H         -6.1961087341        1.4897486437        1.7533107911
 H         -5.8165418369        2.1055674374       -1.2094390585
 H         -5.1536803394        3.0790569370        0.1146551470
 O         -3.2999430294        1.7493294787        0.7378222414
 C         -2.0966171067        1.1067347767        0.9730137069
 O         -1.3633155428        1.6894477129        1.7985322847
 O         -2.5468432896       -1.7134098522       -1.2659729582
 C         -0.4662059339       -0.7118020797        0.5989394443
 C          0.5062295984       -0.3925138576       -0.5116027221
 C          0.4421907412       -1.0230416554       -1.7503624321
 C          1.3276867591       -0.6813742112       -2.7555481501
 C          2.3025277623        0.2777521806       -2.5435176770
 C          2.3729145009        0.9165248735       -1.3117817806
 C          1.4759032936        0.5797452468       -0.3071888900
 H          1.5274620069        1.1021028120        0.6367980735
 N          3.3498992437        1.8991977428       -1.0668184458
 S          4.2878702455        1.7638146519        0.3129081364
 O          3.5152294072        2.0968814182        1.4816004878
 O          5.4436016535        2.5934773440        0.0511157462
 C          4.7623120492        0.0451763053        0.3455417835
 C          4.0615384590       -0.8435731193        1.1347541990
 C          4.3925954490       -2.1885361061        1.0841906501
 C          5.4115114826       -2.6183570319        0.2485461347
 C          6.1106914046       -1.7120510886       -0.5341916982
 C          5.7813988320       -0.3673292715       -0.4909031440
 H          6.3055067801        0.3711894180       -1.0757023107
 H          6.9063363082       -2.0494275347       -1.1786289027
 H          5.6628517656       -3.6664327746        0.2103907611
 H          3.8513944284       -2.8947419377        1.6934601427
 H          3.2795781370       -0.4665878887        1.7741421685
 H          3.9334489480        2.1033779904       -1.8658247692
 H          2.9958285448        0.5410097537       -3.3280361043
 H          1.2623621269       -1.1722239751       -3.7146264794
 H         -0.3279110064       -1.7564750793       -1.9284124683
 H         -0.1075363915       -0.2083992442        1.5072955717
 C         -0.5538248161       -2.1986840721        0.8786739229
 C          0.5265245639       -2.8498614302        1.6857479074
 C         -0.8383226946       -2.6599009430        2.2750712759
 H         -1.4693919853       -3.5249878539        2.4132382394
 H         -0.9655059010       -1.9025715257        3.0357990218
 H          0.8373217420       -3.8482970082        1.4200842494
 H          1.3221217089       -2.2181847420        2.0507605147
 H         -0.9976408652       -2.7674580795        0.0732686162
