  62
        -98.94625730
 C         -2.3834044761       -0.5546949160       -0.0117685390
 C         -1.3855235984       -0.7398505234        0.9726511964
 C         -0.6764805613       -2.0248032300        0.9447063834
 C         -1.0017173308       -2.9311969992        0.0054064732
 C         -0.2775308616       -4.2240640122       -0.2392332329
 C          1.0246993912       -3.9415838372       -1.0175290620
 C          2.3053961970       -4.2583066861       -0.2442215578
 H          2.4494892097       -5.3410782614       -0.2217676434
 H          3.1351392800       -3.8238319336       -0.8064907833
 C          2.3576485187       -3.7448749184        1.1980189463
 H          1.8014153721       -4.4225603696        1.8478331140
 H          3.4013611708       -3.7928570602        1.5155342990
 C          1.8408489183       -2.3167858747        1.4153215492
 H          1.8975687321       -1.7436507704        0.4887393464
 H          2.4938477445       -1.8209451722        2.1370610350
 C          0.4043422416       -2.2375032233        1.9675949857
 H          0.1845255895       -3.1337285134        2.5542291442
 H          0.3335155372       -1.3761365291        2.6378151146
 H          1.0303791617       -4.5233699760       -1.9412113154
 H          1.0297301297       -2.8889872771       -1.3123855905
 H         -0.0610069300       -4.7139654007        0.7075738033
 H         -0.9378622857       -4.8653154748       -0.8237988661
 O         -1.9912239244       -2.7323820714       -0.9040585288
 C         -2.6829888080       -1.5331277334       -0.9563792154
 O         -3.5294116384       -1.4625034330       -1.8724988293
 H         -0.8869837991        0.6777421695       -1.6301812773
 C         -0.9442858570        1.6151825130       -1.0961762963
 C         -2.0294631558        1.8700494240       -0.2669477808
 C         -2.0865338070        3.0929958966        0.3893129401
 C         -1.0635418913        4.0147707522        0.2433961033
 C          0.0445669952        3.7292748813       -0.5334290588
 C          0.1039023266        2.5134720515       -1.2051443881
 N          1.2147366629        2.1610987136       -1.9989740755
 S          2.0846436704        0.7907542050       -1.5807839762
 O          3.1530244969        0.7192713714       -2.5548594402
 O          1.2118508814       -0.3526740565       -1.5129033605
 C          2.7823595861        1.1615971457        0.0193258971
 C          1.9669627515        1.1726601638        1.1331970948
 C          2.5215124374        1.5099666080        2.3587684298
 C          3.8672882784        1.8285197869        2.4508779668
 C          4.6713182141        1.8142690137        1.3209247272
 C          4.1245593540        1.4825279611        0.0922619033
 H          4.7090998362        1.4553011188       -0.8131685072
 H          5.7185318045        2.0602911986        1.3929212157
 H          4.2906654558        2.0875655602        3.4085467684
 H          1.8880344059        1.5176925585        3.2313805100
 H          0.9234463333        0.9123495423        1.0493998840
 H          1.8606900476        2.9226236998       -2.1564421149
 H          0.8565298669        4.4354955034       -0.6205281498
 H         -1.1201888383        4.9602288560        0.7608351485
 H         -2.9278709007        3.3206743913        1.0233119416
 C         -3.0775375157        0.7913202755       -0.1233212035
 H         -3.6719161381        0.7555388457       -1.0483440285
 C         -4.0091044597        1.0106419198        1.0507484560
 C         -5.2511355307        1.8334643466        0.8893648700
 C         -5.3516452335        0.3460012254        1.0393833780
 H         -5.7359798174       -0.0570902537        1.9642247848
 H         -5.6027295192       -0.2435184199        0.1692850872
 H         -5.5717606436        2.4513355995        1.7145547988
 H         -5.4485586014        2.2569196546       -0.0838940014
 H         -3.4807747616        1.0559870456        1.9960376682
 O         -1.0889840879        0.1391833366        1.8258431405
