  62
        -98.93229204
 C          2.5223590178        1.0612354432        0.3266629536
 C          2.6244499613       -0.0662791183        1.1760882779
 C          3.4129816096       -1.1973438573        0.6667528444
 C          3.9683457821       -1.1084019497       -0.5557023303
 C          4.7381236473       -2.1986830086       -1.2455961959
 C          3.7665880194       -3.2504960196       -1.8181450584
 C          3.8748766235       -4.6295303969       -1.1666688701
 H          3.0103241985       -5.2126813735       -1.4907508646
 H          4.7694681359       -5.1300222213       -1.5430417762
 C          3.9406391800       -4.6425557406        0.3636643949
 H          3.7479745911       -5.6695458597        0.6810780092
 H          4.9535822392       -4.4017323164        0.6894271368
 C          2.9581151921       -3.7114236004        1.0857243129
 H          2.0959920696       -3.4978378436        0.4533848745
 H          2.5836858855       -4.2322621760        1.9693212295
 C          3.5728740438       -2.3861213621        1.5740979238
 H          3.0797952955       -2.0946793934        2.5062088152
 H          4.6329397530       -2.5351902195        1.7969377372
 H          3.9433180922       -3.3636282863       -2.8887974653
 H          2.7482485200       -2.8716198721       -1.7076838108
 H          5.3094013171       -1.7330008104       -2.0488160679
 H          5.4319294832       -2.6584967961       -0.5453229834
 O          3.8239278833       -0.0199291873       -1.3544653926
 C          3.0925329168        1.0862453726       -0.9462245589
 O          3.0355483875        1.9985826056       -1.7908209950
 H         -0.2338118418        0.4834063704        0.7642892532
 C         -0.4605632146        1.3059461173        0.0971200755
 C          0.4501010737        2.3513817768       -0.0089891262
 C          0.1510245974        3.4083453376       -0.8567234768
 C         -1.0235444706        3.4025861779       -1.5905470131
 C         -1.9199093138        2.3547827774       -1.4936352582
 C         -1.6356353763        1.2965747439       -0.6387060282
 N         -2.5315144924        0.2133742235       -0.5375518998
 S         -4.1724150668        0.5877524881       -0.3750684760
 O         -4.6938553277        0.9279405016       -1.6749421091
 O         -4.3561195016        1.5827427474        0.6582598514
 C         -4.8324208587       -0.9829131672        0.1451534528
 C         -5.0532719496       -1.9565847254       -0.8105012121
 C         -5.5469546251       -3.1876798060       -0.4095933626
 C         -5.8102270258       -3.4231607513        0.9318500845
 C         -5.5846953757       -2.4356056588        1.8788376190
 C         -5.0889993269       -1.2024803593        1.4849906898
 H         -4.9060160425       -0.4032391008        2.1853728350
 H         -5.7928882753       -2.6204895698        2.9204003383
 H         -6.1962977299       -4.3815878626        1.2411522996
 H         -5.7255950512       -3.9576954068       -1.1426741396
 H         -4.8436098445       -1.7251999602       -1.8417322120
 H         -2.2475338780       -0.4362830590        0.1838962298
 H         -2.8377052731        2.3452172191       -2.0588935044
 H         -1.2438137544        4.2280246370       -2.2508633566
 H          0.8393589375        4.2315288927       -0.9520148869
 C          1.7176232325        2.2582050997        0.8055386625
 H          1.4330321096        2.0193261396        1.8405638832
 C          2.5463921783        3.5234807949        0.8107412277
 C          2.1252532575        4.6807151748        1.6646872889
 C          3.3314479374        3.8738810028        2.0378506832
 H          4.3080700645        4.3172593578        1.9146785966
 H          3.2591566349        3.2063975360        2.8841740688
 H          2.2734094428        5.6811495982        1.2876994942
 H          1.2312114139        4.5624275270        2.2582467692
 H          3.0031260338        3.7350682996       -0.1485536961
 O          2.0775314370       -0.1246620104        2.3117766998
