  62
        -98.94477869
 C          2.1138939003        1.0203255216        0.4993122599
 C          2.0930974302        0.1500365314       -0.6180010600
 C          2.8090106405       -1.1205022484       -0.4465112000
 C          3.3952908808       -1.4067140282        0.7297868099
 C          4.1577129411       -2.6616397880        1.0587060699
 C          5.6204943610       -2.6417627577        0.5928947996
 C          5.8279435508       -2.7833509279       -0.9156891304
 H          6.8900006808       -2.9799116577       -1.0747955906
 H          5.2781133109       -3.6531924580       -1.2763532002
 C          5.4285229804       -1.5452386880       -1.7305917105
 H          5.3504099503       -0.6814868980       -1.0664467605
 H          6.2111790202       -1.3205457080       -2.4585223206
 C          4.1185023102       -1.6918902184       -2.5048033402
 H          3.9103630900       -0.7461182785       -3.0111263203
 H          4.2267300003       -2.4661749384       -3.2674242301
 C          2.9063624905       -2.0353976485       -1.6294465999
 H          1.9986797603       -1.9024996588       -2.2239137298
 H          2.9577921707       -3.0742148885       -1.3032646698
 H          6.0837433109       -1.7150063476        0.9391309794
 H          6.1293017513       -3.4725768276        1.0870858896
 H          4.1438270413       -2.7577089079        2.1466610299
 H          3.6470940612       -3.5239461281        0.6285617501
 O          3.3439984308       -0.5652743181        1.7979560298
 C          2.7103862006        0.6644063318        1.7073899898
 O          2.7374711506        1.3350226019        2.7608865897
 O          1.5138594000        0.4195596312       -1.7012754799
 C          1.4198418400        2.3689863814        0.4198178499
 C         -0.0476122600        2.1585120511        0.1355296002
 C         -0.7358273203        2.7961393608       -0.8873693798
 C         -2.0765849603        2.5269011906       -1.1036238695
 C         -2.7585102800        1.6260282505       -0.3065754992
 C         -2.0812408697        0.9891717808        0.7253709507
 C         -0.7414837997        1.2634508510        0.9416887204
 H         -0.2132648494        0.7600870012        1.7439596004
 N         -2.7746837193        0.0636535407        1.5413492909
 S         -3.1702571492       -1.3871562695        0.7773350212
 O         -3.4210278388       -2.3245855394        1.8513177813
 O         -2.1605533493       -1.7718923994       -0.1837591890
 C         -4.7003133594       -1.0177582598       -0.0519550086
 C         -5.8112212993       -0.7398116900        0.7206510016
 C         -7.0059994895       -0.4363877103        0.0875981718
 C         -7.0686622698       -0.4175075005       -1.2980568382
 C         -5.9448417599       -0.7027374503       -2.0587435684
 C         -4.7461152597       -1.0065697000       -1.4321549286
 H         -3.8438795797       -1.2278669599       -1.9798088187
 H         -5.9952814801       -0.6878536904       -3.1355859184
 H         -7.9991527599       -0.1793374007       -1.7887645881
 H         -7.8822713294       -0.2147613804        0.6750968519
 H         -5.7171810191       -0.7708879198        1.7932893016
 H         -2.2705268891       -0.1545189191        2.3905478409
 H         -3.8024860700        1.4160019703       -0.4714755990
 H         -2.5973924706        3.0254207304       -1.9066504394
 H         -0.2195114606        3.4956467909       -1.5237188299
 H          1.5127684701        2.8188516115        1.4192420598
 C          2.1160905696        3.2613342414       -0.5857314104
 C          2.0595281694        4.7510646714       -0.4359601905
 C          3.3363093896        4.0177488417       -0.1576071107
 H          4.1531416594        4.1162393418       -0.8567063308
 H          3.6529351398        3.9073312719        0.8696774593
 H          2.0031967991        5.3575463613       -1.3270951906
 H          1.5108045394        5.1479464314        0.4046268496
 H          2.1127484495        2.8431228713       -1.5855625803
