  62
        -98.94608353
 C          0.9425809654        1.6548310901        0.6147232098
 C          1.7134642703        1.5633231250       -0.5689051339
 C          2.8590264137        0.6436711800       -0.5157922065
 C          3.0922286156       -0.0563276677        0.6093618541
 C          4.2299085424       -1.0173207179        0.7983759630
 C          3.8391168311       -2.4505791337        0.4150505675
 C          3.1314472366       -2.5582600874       -0.9349784738
 H          2.9222976399       -3.6150936990       -1.1100850097
 H          2.1681007728       -2.0462605178       -0.8752108759
 C          3.9342617876       -1.9984523055       -2.1175142883
 H          3.8667248244       -2.7014497326       -2.9502880847
 H          4.9876617507       -1.9182363898       -1.8462884996
 C          3.4428680466       -0.6464663649       -2.6375676388
 H          2.3654494589       -0.6904420012       -2.8165100796
 H          3.9266526885       -0.4564737176       -3.5994563650
 C          3.7322947080        0.5601017817       -1.7358873804
 H          4.7882847335        0.5669058869       -1.4574487493
 H          3.5239023080        1.4651392351       -2.3140320781
 H          4.7432033976       -3.0620133638        0.4044898654
 H          3.1710199758       -2.8404177404        1.1843167880
 H          5.0734908914       -0.6860324807        0.1954220996
 H          4.5205508580       -0.9981607355        1.8502709679
 O          2.2948023052        0.0171843332        1.7065031840
 C          1.2046640123        0.8716346294        1.7378876928
 O          0.5579492877        0.8422649890        2.8054825989
 O          1.4706418766        2.2266952070       -1.6104203962
 C         -0.2264362301        2.6207606338        0.6801437513
 C         -1.2588071147        2.2610074954       -0.3606449449
 C         -1.7948351028        3.1704407479       -1.2621178487
 C         -2.7530964647        2.7650661671       -2.1752814812
 C         -3.2158236559        1.4626876997       -2.1875480827
 C         -2.6924610789        0.5458486377       -1.2817713688
 C         -1.7098692296        0.9469568558       -0.3926945678
 H         -1.2971309705        0.2321547114        0.3039395531
 N         -3.1406527554       -0.7832727331       -1.2589719599
 S         -3.3528631935       -1.5764628127        0.2020393635
 O         -4.3922282141       -2.5481508994       -0.0678968572
 O         -3.6124398622       -0.6489393041        1.2768479688
 C         -1.8281428342       -2.4554953533        0.4664098186
 C         -1.0040979733       -2.1320861379        1.5250376542
 C          0.1518688552       -2.8711628846        1.7243055029
 C          0.4577562927       -3.9193102700        0.8707873666
 C         -0.3772341741       -4.2281096751       -0.1927190084
 C         -1.5310468841       -3.4911816461       -0.3987292438
 H         -2.2156771788       -3.7085446631       -1.2015387270
 H         -0.1326178053       -5.0414648551       -0.8564972943
 H          1.3499412327       -4.5020935583        1.0375416514
 H          0.8023080231       -2.6130504511        2.5457206269
 H         -1.2656546905       -1.3123055442        2.1776901190
 H         -3.8901621708       -0.9878178079       -1.9039313742
 H         -3.9749158997        1.1531598043       -2.8898728866
 H         -3.1550879781        3.4783088559       -2.8789070535
 H         -1.4599322924        4.1944310771       -1.2556168346
 H         -0.6895661862        2.4734099702        1.6676533597
 C          0.2697044654        4.0483489379        0.5831304338
 C         -0.5110258112        5.1612283866        1.2127731924
 C          0.7864193484        4.7194936348        1.8186534267
 H          1.6449916659        5.3685144811        1.7332365964
 H          0.7567182486        4.1542482771        2.7391892101
 H         -0.5419532585        6.1178009349        0.7133157040
 H         -1.4243757691        4.9021011677        1.7270688289
 H          0.7887093030        4.2472774026       -0.3472309594
