  62
        -98.94666450
 C         -1.4584668558       -1.4646060773       -0.4286742312
 C         -2.7212605497       -1.3953661513        0.2118510401
 C         -3.5332066981       -0.2133608556       -0.0946342030
 C         -3.0581538610        0.7207429279       -0.9387331992
 C         -3.7775527506        1.9713213545       -1.3679867635
 C         -3.6503975884        3.1447885745       -0.3866395433
 C         -4.4388323602        2.9960065251        0.9147981326
 H         -4.4317296984        3.9704372937        1.4074399046
 H         -5.4776061820        2.7561893145        0.6858327454
 C         -3.8678134760        1.9492294910        1.8817669288
 H         -3.8269927702        2.3669945420        2.8902391785
 H         -2.8423706423        1.7052442903        1.5941431089
 C         -4.6764465195        0.6544827362        1.9587404093
 H         -4.1664686756       -0.0293024088        2.6421540788
 H         -5.6667676752        0.8634297748        2.3695422832
 C         -4.8463479613       -0.0604067691        0.6118604304
 H         -5.2402832306       -1.0617393761        0.8025458876
 H         -5.5558037332        0.4802973144       -0.0142699741
 H         -4.0080117792        4.0394085512       -0.9016984510
 H         -2.5950754257        3.2947743311       -0.1510776408
 H         -3.3381703973        2.2696833939       -2.3222114259
 H         -4.8324461321        1.7469175158       -1.5295677302
 O         -1.8449148781        0.6137072349       -1.5396228902
 C         -1.0076554486       -0.4643629270       -1.2916696332
 O          0.0755538487       -0.4129239779       -1.9031683547
 H          1.9285892508       -1.8720355062       -0.9644377534
 C          1.7901063747       -1.7248270679        0.0945482375
 C          0.6010635294       -2.1075856347        0.6961576238
 C          0.4431120150       -1.8843667946        2.0611979174
 C          1.4487290962       -1.2923402709        2.8025071275
 C          2.6265528980       -0.8922632503        2.1944412230
 C          2.7868455518       -1.1004261631        0.8313878157
 N          3.9659335252       -0.6545332991        0.1939172156
 S          4.2368991014        0.9989537756        0.2313419683
 O          5.2832782497        1.2379514167       -0.7369073161
 O          4.5281813127        1.3896571436        1.5882187051
 C          2.7167577347        1.7607649963       -0.3060713720
 C          2.5549126954        2.0433541865       -1.6468213569
 C          1.3645466664        2.6052543053       -2.0750863474
 C          0.3561271808        2.8633251387       -1.1611500440
 C          0.5299343729        2.5637143772        0.1803748646
 C          1.7209654765        2.0075529974        0.6169107907
 H          1.8917902518        1.7675998651        1.6538798778
 H         -0.2601056416        2.7545187835        0.8909427345
 H         -0.5740173112        3.2908482622       -1.5015089892
 H          1.2201900759        2.8290558758       -3.1197402377
 H          3.3639581843        1.8278616102       -2.3264479814
 H          4.0289478204       -0.9689539574       -0.7649043291
 H          3.4107852352       -0.4018993242        2.7482009546
 H          1.3136051085       -1.1324287410        3.8616619611
 H         -0.4881973847       -2.1680550572        2.5313760012
 C         -0.5577916575       -2.6457537055       -0.1037209863
 H         -1.1546499902       -3.2990199684        0.5463487938
 C         -0.1508803648       -3.4233487803       -1.3369154018
 C          0.4708217931       -4.7775153778       -1.1751011412
 C         -0.9207731199       -4.6512245875       -1.7162194172
 H         -1.0875415594       -4.8507937553       -2.7641628964
 H         -1.7448393121       -4.9413153579       -1.0810892413
 H          1.2614078615       -5.0677414789       -1.8501863967
 H          0.5923573007       -5.1520547946       -0.1699410912
 H          0.2035490144       -2.7960929390       -2.1455548666
 O         -3.1503449180       -2.2821460809        0.9969803304
