  62
        -98.94484232
 C         -1.9200364443       -0.4332158303       -0.0162485982
 C         -2.9596291698       -0.5534083870        0.9451031417
 C         -4.1151478936        0.3358144122        0.7788234299
 C         -4.1241647511        1.2135629812       -0.2404102391
 C         -5.2561507165        2.1438637770       -0.5639632431
 C         -6.2412524849        1.4990015460       -1.5491312256
 C         -6.6788627571        0.0892188859       -1.1515907171
 H         -7.3950278279       -0.2523454386       -1.9020631423
 H         -5.8164863917       -0.5793241421       -1.2027364657
 C         -7.3134143593       -0.0093674506        0.2427344162
 H         -8.2096994824       -0.6297075827        0.1763613718
 H         -7.6287398961        0.9796445545        0.5772083660
 C         -6.4130137258       -0.6404955128        1.3064061644
 H         -6.0200348592       -1.5908294866        0.9365921321
 H         -7.0264570401       -0.8597391534        2.1843639092
 C         -5.2325577156        0.2186832543        1.7767712135
 H         -5.5910308035        1.2074132312        2.0706261111
 H         -4.7989416265       -0.2649269710        2.6569451811
 H         -7.1176197313        2.1443239532       -1.6325575336
 H         -5.7642080352        1.4454883788       -2.5305284434
 H         -5.7706452941        2.4144644848        0.3561465852
 H         -4.8416093929        3.0464993033       -1.0162322150
 O         -3.1057046037        1.3174053346       -1.1283726877
 C         -1.9850535630        0.5027699203       -1.0481879363
 O         -1.1502557959        0.7281720687       -1.9486697703
 O         -2.9219094524       -1.3767334892        1.8977049811
 C         -0.7354729940       -1.3710080823        0.1498189120
 C          0.4340592301       -0.6769957379        0.8063621514
 C          0.8963879262       -1.0834207893        2.0523497590
 C          1.9826855510       -0.4588912792        2.6409726717
 C          2.6301636349        0.5805436615        1.9984181587
 C          2.1724352006        0.9955340323        0.7541320601
 C          1.0883038944        0.3642194556        0.1629680587
 H          0.7331468092        0.6975012357       -0.8007398177
 N          2.8334555309        2.0445891148        0.0866409877
 S          4.4905215706        1.8711033389       -0.0924554397
 O          5.1491909405        2.2844326001        1.1218856401
 O          4.8350382005        2.6178760427       -1.2817256069
 C          4.7339154956        0.1220818344       -0.3474348361
 C          4.1855809527       -0.4489271973       -1.4788735799
 C          4.3095682974       -1.8154591461       -1.6665300867
 C          4.9718572275       -2.5848226433       -0.7221499248
 C          5.5202207589       -1.9957572229        0.4061960822
 C          5.3993228934       -0.6288954074        0.5996386221
 H          5.8075713637       -0.1305424179        1.4635436837
 H          6.0364603285       -2.5964130511        1.1374846693
 H          5.0604743824       -3.6497169729       -0.8684220834
 H          3.8854975374       -2.2739294355       -2.5455007341
 H          3.6778133938        0.1774844893       -2.1951308058
 H          2.4006577486        2.2877831411       -0.7929448414
 H          3.4768100945        1.0814563911        2.4394812207
 H          2.3288671816       -0.7844666778        3.6098674673
 H          0.3890166026       -1.8869834437        2.5656646775
 H         -1.0866323567       -2.1511864782        0.8381706211
 C         -0.3027482390       -2.0326487036       -1.1449424084
 C          0.5230638310       -3.2808921960       -1.0790831781
 C         -0.9033297370       -3.3486443508       -1.5339939856
 H         -1.1070959653       -3.5324761319       -2.5782975288
 H         -1.6328533988       -3.7826909695       -0.8657461186
 H          1.3030940107       -3.4204280086       -1.8109536142
 H          0.7625680944       -3.6697123714       -0.1012971308
 H         -0.0926433298       -1.3288830984       -1.9394371053
