  62
        -98.94356284
 C         -1.9550715653       -1.4426060260        0.1742714029
 C         -2.1669294464       -0.4816220704        1.1966481122
 C         -3.1366028093        0.5776484965        0.9022992881
 C         -3.7564908018        0.5974786158       -0.2917483884
 C         -4.8107990040        1.5783454883       -0.7283363168
 C         -4.2554396041        2.9016073087       -1.2714957759
 C         -3.6693141013        3.8403697065       -0.2166765797
 H         -4.3925803465        3.9781780775        0.5876763176
 H         -3.5275443278        4.8112906821       -0.6954438242
 C         -2.3268330071        3.3768910146        0.3655086572
 H         -1.6380007223        4.2235472043        0.3949006575
 H         -1.8853767048        2.6222138472       -0.2892082990
 C         -2.4070873236        2.8114950106        1.7835294091
 H         -2.7085861087        3.5997928406        2.4771621346
 H         -1.4103344879        2.4689591024        2.0731672628
 C         -3.3738869053        1.6311606633        1.9421310382
 H         -4.4052386469        1.9813260511        1.8981996686
 H         -3.2013560705        1.1758090784        2.9205990049
 H         -5.0782633440        3.4186681189       -1.7705252973
 H         -3.4968866791        2.6788438115       -2.0251343616
 H         -5.3767473423        1.0896131621       -1.5243519839
 H         -5.4869190861        1.7806741402        0.1031570146
 O         -3.5030822753       -0.3216028925       -1.2581348775
 C         -2.5900322233       -1.3499084094       -1.0650889369
 O         -2.4587973799       -2.0895895580       -2.0582249834
 H          1.1300876024       -1.4864886990        1.7155054284
 C          1.3497549585       -1.6849196153        0.6748742224
 C          0.3675650983       -2.2510730434       -0.1267457093
 C          0.6484535703       -2.4716600460       -1.4704729589
 C          1.8911974434       -2.1484236353       -1.9854847441
 C          2.8749458990       -1.6022488301       -1.1795085098
 C          2.5976838909       -1.3606514899        0.1595571943
 N          3.5864143718       -0.8078095967        0.9934536802
 S          4.4310843923        0.5378655596        0.4716780587
 O          5.3469048713        0.1555695058       -0.5729357697
 O          5.0223036633        1.0954066876        1.6662475528
 C          3.1875977351        1.6387122281       -0.1751049321
 C          2.9858002425        1.7306058415       -1.5369913476
 C          1.9736999433        2.5513752184       -2.0090050596
 C          1.1862555719        3.2614437420       -1.1164114176
 C          1.4050458781        3.1615771240        0.2491851444
 C          2.4109415983        2.3387158818        0.7269057315
 H          2.6146548454        2.2415062517        1.7813354215
 H          0.7934986301        3.7170563646        0.9419793164
 H          0.3985784663        3.8989831369       -1.4861269271
 H          1.8015946036        2.6327342902       -3.0702529191
 H          3.6246998673        1.1706388503       -2.1995670917
 H          3.2846843944       -0.6858525919        1.9492606599
 H          3.8517688995       -1.3615507739       -1.5661999355
 H          2.0992940818       -2.3284546076       -3.0293488980
 H         -0.1195985836       -2.8748960894       -2.1109084229
 C         -0.9788048502       -2.5675964326        0.4784713892
 H         -0.8611723668       -2.5515455633        1.5706546165
 C         -1.4879785368       -3.9360571128        0.0758035922
 C         -0.8336100255       -5.1495576248        0.6626870935
 C         -2.2207696302       -4.7685927820        1.0827858660
 H         -3.0481213186       -5.3745096162        0.7450860247
 H         -2.3593757254       -4.3547193408        2.0711017458
 H         -0.0294833493       -4.9918435972        1.3658004072
 H         -0.7052679157       -6.0195908435        0.0374528592
 H         -1.8274853525       -3.9921604310       -0.9496159210
 O         -1.5825945145       -0.5202694638        2.3131847630
