  62
        -98.93775855
 C          1.9655515591        0.8679606018        0.5638146264
 C          2.2524854876        0.2180378396       -0.6579071387
 C          2.6133870484       -1.2080739490       -0.5739705705
 C          2.6180953438       -1.8205019695        0.6246097308
 C          2.8808250236       -3.2638609762        1.0019732275
 C          3.5740509131       -4.2134875110        0.0277362524
 C          5.0292124519       -3.8658416747       -0.2827039152
 H          5.6250673408       -4.0236049183        0.6196760915
 H          5.3887369601       -4.5602003269       -1.0452125544
 C          5.2780407597       -2.4360924907       -0.7565329810
 H          5.0321542264       -1.7360832351        0.0446573432
 H          6.3477061678       -2.3323792144       -0.9575723603
 C          4.5252059812       -2.0261377611       -2.0210422743
 H          4.9228989946       -1.0593523916       -2.3403202009
 H          4.7213273167       -2.7479492563       -2.8160145234
 C          3.0016388771       -1.8683723115       -1.8654226601
 H          2.6449673539       -1.2096225080       -2.6626605598
 H          2.4885532328       -2.8208481698       -1.9765044321
 H          2.9991393367       -4.2958285310       -0.8898217133
 H          3.5632061479       -5.2004759950        0.4982591577
 H          3.4532699686       -3.2264422858        1.9343720928
 H          1.9009121913       -3.6831356815        1.2579192262
 O          2.3008905966       -1.1561279016        1.7760737043
 C          1.9700466096        0.1864854190        1.7774605583
 O          1.7112978249        0.6527260640        2.9077351831
 H         -0.5482733787        0.7130174411        0.4097626839
 C         -0.6783040376        1.5901537736       -0.2088259758
 C          0.3294955575        2.5442731866       -0.2661753248
 C          0.1354287206        3.6673324379       -1.0605317768
 C         -1.0363036631        3.8197441725       -1.7815769483
 C         -2.0354238527        2.8665632931       -1.7229934715
 C         -1.8488518848        1.7356590964       -0.9342205437
 N         -2.8248041933        0.7265007925       -0.8900698058
 S         -2.9402976450       -0.2654060624        0.4660585241
 O         -2.9591151194        0.5343213744        1.6712894312
 O         -1.9278670759       -1.2898516562        0.3873348833
 C         -4.5485957386       -0.9840027822        0.1872582512
 C         -4.6543061693       -2.0831086405       -0.6438834875
 C         -5.9082133778       -2.6208227496       -0.8876495099
 C         -7.0295099616       -2.0533217897       -0.3007476520
 C         -6.9078829886       -0.9518563324        0.5330535907
 C         -5.6568453913       -0.4087890934        0.7803158824
 H         -5.5119186710        0.4400564438        1.4290817744
 H         -7.7805886151       -0.5149946750        0.9909379906
 H         -8.0039083710       -2.4741459055       -0.4919828088
 H         -6.0056804429       -3.4790876709       -1.5326748885
 H         -3.7534472388       -2.4938551523       -1.0694592419
 H         -3.7302085273        1.0298613251       -1.2210159620
 H         -2.9469929865        2.9865798838       -2.2879971497
 H         -1.1742466603        4.6965939957       -2.3958171090
 H          0.9026701766        4.4221038722       -1.1161856433
 C          1.5703940396        2.3316872173        0.5688624109
 H          1.3163693960        2.5731842417        1.6128590679
 C          2.7398605900        3.1936622869        0.1372931978
 C          2.9205014682        4.5692904255        0.7031144104
 C          3.8385039956        3.4611170991        1.1202790767
 H          4.8580468425        3.4705086887        0.7654317253
 H          3.7247408874        3.0453368162        2.1113913362
 H          3.3147000743        5.3430089498        0.0616400703
 H          2.1904367821        4.9156690922        1.4191760226
 H          3.0219411803        3.0197137081       -0.8946792754
 O          2.2063174268        0.7977912909       -1.7749078706
