  62
        -98.94023942
 C         -2.4452132816       -0.9206000968       -0.0162387013
 C         -2.6549743137        0.4554532656        0.2420620232
 C         -4.0274751568        0.8301754398        0.6062157619
 C         -4.9776385200       -0.1175835513        0.7030775559
 C         -6.4142024211        0.1045819774        1.0920209560
 C         -7.3163396030        0.5390845556       -0.0711308425
 C         -7.1074047250        1.9746706210       -0.5545095850
 H         -7.9425914087        2.2149459126       -1.2153608496
 H         -7.1592662770        2.6545608548        0.2963731534
 C         -5.7944981415        2.2009720907       -1.3171459817
 H         -5.9939015717        2.7791342847       -2.2222664503
 H         -5.3871802793        1.2387415274       -1.6361906309
 C         -4.7233806239        2.9527623858       -0.5266822105
 H         -3.8260193459        3.0233464412       -1.1468572072
 H         -5.0677371749        3.9677408989       -0.3161956324
 C         -4.3308495776        2.2854473290        0.7980464614
 H         -3.4222567381        2.7661394733        1.1689771683
 H         -5.1231159865        2.4164917819        1.5347303044
 H         -7.1683731792       -0.1514618133       -0.9045588029
 H         -8.3510555743        0.4383822487        0.2643707842
 H         -6.4667504581        0.8446648247        1.8909132841
 H         -6.7826560579       -0.8492213905        1.4756067451
 O         -4.7266102624       -1.4343514665        0.4720060871
 C         -3.4660703765       -1.8644366270        0.0912618055
 O         -3.3802445070       -3.0936209824       -0.1080997197
 O         -1.7474363474        1.3250542490        0.1778482632
 C         -1.0685656361       -1.4106505850       -0.4239865109
 C         -0.0461251167       -1.0461720787        0.6253148574
 C         -0.3264422205       -1.3136461444        1.9633085711
 C          0.5899680841       -1.0113496704        2.9512419206
 C          1.8135066867       -0.4518703660        2.6266160584
 C          2.1041791452       -0.1828784649        1.2950597887
 C          1.1770289684       -0.4800585121        0.3051076800
 H          1.4319863333       -0.2612845742       -0.7180659127
 N          3.3269558197        0.4054856475        0.9340979153
 S          4.0430483316       -0.0522641742       -0.5245180129
 O          3.4671803167        0.7203514055       -1.5960026213
 O          3.9912741834       -1.4893806468       -0.6725618185
 C          5.7207938537        0.4800226702       -0.2354068337
 C          6.6657155813       -0.4422095354        0.1731104186
 C          7.9587675863       -0.0107146561        0.4244223462
 C          8.2823313260        1.3285024065        0.2668853831
 C          7.3232111447        2.2424261364       -0.1444609650
 C          6.0289327177        1.8176188977       -0.3987207533
 H          5.2529636971        2.4889811077       -0.7280672791
 H          7.5792755688        3.2822611091       -0.2686290507
 H          9.2890286866        1.6619617938        0.4634177978
 H          8.7073100493       -0.7189877653        0.7411826348
 H          6.3700541900       -1.4740661543        0.2744485466
 H          3.9960460147        0.4184166598        1.6916094125
 H          2.5317186785       -0.2184859424        3.3979394849
 H          0.3542410701       -1.2209863992        3.9839359870
 H         -1.2788693540       -1.7604149163        2.2166259895
 H         -1.1332909457       -2.5086841459       -0.4643705787
 C         -0.7201395223       -0.8952469389       -1.8048769081
 C          0.2170315845       -1.6653304317       -2.6842199545
 C         -1.2450215433       -1.6148950396       -3.0091424655
 H         -1.5650658916       -1.0323581534       -3.8599732640
 H         -1.8382119181       -2.5013541320       -2.8364082194
 H          0.9080879955       -1.1150828948       -3.3058544562
 H          0.6231055954       -2.5874045521       -2.2953507756
 H         -0.6802998077        0.1878752302       -1.8466701057
