  62
        -98.94443871
 C          1.7577455796        0.7769581103        0.0218727306
 C          2.9484920294        1.2477533400        0.6261600410
 C          4.1948925295        0.9174059907       -0.0731301691
 C          4.1491034198        0.2282592115       -1.2278505496
 C          5.3325397599       -0.1685976077       -2.0683100797
 C          6.0134676001       -1.4659851479       -1.6110707006
 C          6.8243098899       -1.3545536087       -0.3192780504
 H          7.4171848401       -2.2674151286       -0.2338837510
 H          7.5215149398       -0.5200878385       -0.4005456998
 C          5.9751950398       -1.1971540697        0.9498863696
 H          4.9449657199       -1.4926478897        0.7371771793
 H          6.3478473698       -1.8726478002        1.7232878492
 C          5.9749753595        0.2126936399        1.5411723906
 H          6.9820427894        0.4686911698        1.8774874609
 H          5.3171413394        0.2180729092        2.4140053805
 C          5.4901078294        1.3025842005        0.5759194913
 H          5.3159702992        2.2160630600        1.1496099619
 H          6.2502416895        1.5022525911       -0.1788118485
 H          5.2496528902       -2.2389946381       -1.4973984512
 H          6.6870256902       -1.7803470772       -2.4117059307
 H          4.9566844500       -0.3165997171       -3.0830068599
 H          6.0618066198        0.6418106424       -2.0821526591
 O          2.9817027599       -0.1849437083       -1.7898400600
 C          1.7618290698        0.0529983711       -1.1701127899
 O          0.7803786199       -0.4163104886       -1.7769243403
 O          2.9678588592        1.9077165993        1.6993978715
 C          0.4328433795        1.0471421996        0.7120766607
 C         -0.2235228504       -0.2574686808        1.0905901097
 C          0.5104213897       -1.1800237612        1.8333363691
 C         -0.0429976401       -2.3886035516        2.2056802982
 C         -1.3414276800       -2.7044265415        1.8447840079
 C         -2.0868791601       -1.7889567211        1.1127053085
 C         -1.5295694303       -0.5698014708        0.7479366594
 H         -2.1220661703        0.1223089495        0.1744019898
 N         -3.4208662701       -2.0641007011        0.7832245882
 S         -4.0889152700       -1.5633963002       -0.6666195415
 O         -5.2819303099       -2.3752160303       -0.7965804622
 O         -3.1520161899       -1.6393481693       -1.7614741615
 C         -4.5824641203        0.1218637995       -0.3753269304
 C         -4.3289236504        1.0759540302       -1.3403414797
 C         -4.7619514206        2.3758428400       -1.1278617189
 C         -5.4370923708        2.6961652391        0.0402171213
 C         -5.6822384807        1.7257699384        1.0000555806
 C         -5.2560053005        0.4239264686        0.7918929097
 H         -5.4318903004       -0.3574807119        1.5118658492
 H         -6.2049746008        1.9801464277        1.9078632407
 H         -5.7708914009        3.7088404189        0.2026969520
 H         -4.5703424707        3.1311157906       -1.8738703183
 H         -3.7882194302        0.7848131709       -2.2275408599
 H         -3.7398307199       -2.9875473413        1.0378841175
 H         -1.7745135499       -3.6517199918        2.1281210972
 H          0.5404792999       -3.0947485119        2.7773062578
 H          1.5264322996       -0.9341738712        2.1111851894
 H          0.6966110193        1.5754786090        1.6407800411
 C         -0.4442483106        1.9515776400       -0.1260732188
 C         -1.4506189208        2.8397587494        0.5409785718
 C         -0.2180035509        3.4317745200       -0.0716926477
 H         -0.3148346909        4.0005344706       -0.9841513873
 H          0.5616357490        3.7896507597        0.5848168326
 H         -2.3990255108        3.0030798696        0.0523270818
 H         -1.5107045509        2.7998175686        1.6179154317
 H         -0.6953655205        1.5177224106       -1.0880542191
