  62
        -98.94358467
 C         -2.5592417461       -0.0017293815       -0.1506234612
 C         -2.4230908468       -1.1372051688       -0.9879630845
 C         -1.9542603323       -2.3681345522       -0.3443691451
 C         -1.6807584315       -2.3668813089        0.9724709417
 C         -1.1889941889       -3.5380743123        1.7785151554
 C          0.3328234270       -3.7242383683        1.7094285133
 C          0.8517289258       -4.3034949775        0.3927299003
 H          1.8854791112       -4.6112576676        0.5617856688
 H          0.2809107863       -5.1971498090        0.1367353964
 C          0.8214710627       -3.3156972465       -0.7817515033
 H          0.7415741504       -2.2937909475       -0.4015479116
 H          1.7669631262       -3.3652504572       -1.3281970923
 C         -0.2941363140       -3.5593991478       -1.7988726021
 H         -0.1249389438       -4.5122403778       -2.3067234745
 H         -0.2421679726       -2.7631361645       -2.5465436755
 C         -1.7106092531       -3.5681365657       -1.2091532780
 H         -2.4243146769       -3.5323514093       -2.0363282369
 H         -1.8757524884       -4.4844988921       -0.6423355732
 H          0.6194302069       -4.3978839835        2.5205204148
 H          0.8077041599       -2.7559843291        1.8879794674
 H         -1.6878425601       -4.4504007492        1.4500718352
 H         -1.4671590161       -3.3401680209        2.8159221375
 O         -1.8395495184       -1.2643485256        1.7478545645
 C         -2.2149574810       -0.0452091218        1.2024442449
 O         -2.2238646448        0.8885210164        2.0269772893
 O         -2.6765117787       -1.1192502271       -2.2239647126
 C         -2.8898719097        1.3274556009       -0.8115936227
 C         -1.8209441909        2.3157502481       -0.4163843125
 C         -2.0596912984        3.5424291676        0.1859214892
 C         -0.9987155583        4.3342112257        0.5932977706
 C          0.3081190791        3.9133786094        0.4326798111
 C          0.5562334905        2.6913628693       -0.1844947305
 C         -0.5046196666        1.9255414208       -0.6314737423
 H         -0.3051540582        0.9768785813       -1.1101387064
 N          1.8686434771        2.2201035060       -0.3729387281
 S          2.1056760603        0.5460531489       -0.3542068171
 O          1.8093520689        0.0329179059       -1.6687137160
 O          1.4023725128       -0.0604946342        0.7533144166
 C          3.8665022419        0.4793686255       -0.0812678331
 C          4.7073911039        0.7594169582       -1.1421465602
 C          6.0772080323        0.7410389429       -0.9340961975
 C          6.5809664861        0.4438754761        0.3238338431
 C          5.7250834533        0.1619711457        1.3777642620
 C          4.3534758981        0.1808023068        1.1766839399
 H          3.6488598627       -0.0365983593        1.9636653166
 H          6.1187478458       -0.0722793357        2.3536595207
 H          7.6475044725        0.4291890441        0.4833124477
 H          6.7456765131        0.9569810727       -1.7517608841
 H          4.2687663162        0.9740749754       -2.1025689680
 H          2.5437769629        2.6999380181        0.2067300791
 H          1.1298941364        4.5169398088        0.7870622586
 H         -1.1950090232        5.2826055640        1.0702997165
 H         -3.0721074385        3.8633922131        0.3686181261
 H         -2.7816729683        1.1240919384       -1.8912585883
 C         -4.3094756600        1.8296223128       -0.6088831960
 C         -5.4280689692        0.8741745860       -0.3214632352
 C         -4.9817791641        1.8431520665        0.7298790595
 H         -5.6307570130        2.6742458799        0.9649174962
 H         -4.4217736727        1.4711897699        1.5726385682
 H         -6.3798228151        1.0361805755       -0.8048406729
 H         -5.1710475765       -0.1679830840       -0.1964415965
 H         -4.5437713845        2.6528773293       -1.2772661159
