  62
        -98.93861614
 C         -2.0611085806       -1.3966801202        0.2043207194
 C         -1.7710668706       -0.4086714201       -0.7675299904
 C         -2.5724131201        0.8242518302       -0.6879831298
 C         -3.5143928097        0.9378221503        0.2658063805
 C         -4.3449128992        2.1625417905        0.5264405411
 C         -3.5077667986        3.2118708800        1.2862230212
 C         -3.2316207883        4.4936243601        0.4992951615
 H         -4.1361682881        5.1053632805        0.4908926019
 H         -2.4638449080        5.0498643097        1.0418783714
 C         -2.7799690789        4.3067126604       -0.9525497187
 H         -3.6470072091        4.1023090509       -1.5823848285
 H         -2.3738906586        5.2651713203       -1.2827091786
 C         -1.7278591293        3.2168823500       -1.1966323694
 H         -1.1482731691        3.0358476396       -0.2904305096
 H         -1.0292498794        3.5862531300       -1.9501916595
 C         -2.2984391900        1.8843335104       -1.7183506296
 H         -3.2072113201        2.0783637609       -2.2942477692
 H         -1.5714722404        1.4283125403       -2.3966920299
 H         -4.0175566982        3.4835581699        2.2119464214
 H         -2.5604228986        2.7511950196        1.5761796107
 H         -4.7072467893        2.5702530309       -0.4145634086
 H         -5.2011744891        1.8538541207        1.1264831713
 O         -3.7673295398       -0.0385916899        1.1764511103
 C         -3.0464532602       -1.2235821301        1.1742018498
 O         -3.3675736803       -2.0241124003        2.0763239997
 H         -0.0877534399       -0.7881558314        1.6635070690
 C          0.6429875897       -1.3800500715        1.1253063086
 C          0.2078148190       -2.4190484911        0.3129187584
 C          1.1611532685       -3.1685686013       -0.3649973421
 C          2.5085761487       -2.8791652318       -0.2324927924
 C          2.9357157293       -1.8349285922        0.5664069277
 C          1.9899346798       -1.0755363620        1.2436301382
 N          2.4075977805        0.0089643076        2.0336309484
 S          3.5677061807        1.0329237773        1.3911336883
 O          4.8789428306        0.5011873968        1.6712650278
 O          3.2832085913        2.3298968173        1.9662578188
 C          3.2954270301        1.0523860379       -0.3720400916
 C          4.3246221697        0.6991824378       -1.2212175720
 C          4.0971099493        0.7031072683       -2.5877008419
 C          2.8491094293        1.0545859489       -3.0779792014
 C          1.8273733897        1.4123143890       -2.2123266910
 C          2.0501780001        1.4130771285       -0.8459126511
 H          1.2679194404        1.6812767886       -0.1534759208
 H          0.8515657396        1.6691455395       -2.5900707206
 H          2.6674036489        1.0483798392       -4.1410929114
 H          4.8899061790        0.4266407382       -3.2639900923
 H          5.2763511597        0.4256549173       -0.7952355024
 H          1.6481336908        0.5340498778        2.4411598188
 H          3.9807248695       -1.5959491326        0.6802491175
 H          3.2368605883       -3.4721592219       -0.7638277128
 H          0.8482065680       -3.9801521410       -1.0008702322
 C         -1.2740399811       -2.6937704805        0.2145594388
 H         -1.5823973610       -3.2310283307        1.1239787288
 C         -1.6445373918       -3.5311352401       -0.9935038713
 C         -1.6546519623       -5.0270795501       -0.9085439217
 C         -2.9467162921       -4.2720275996       -0.9832280511
 H         -3.5225522724       -4.3181523891       -1.8953510209
 H         -3.5505720918       -4.1971623496       -0.0901224809
 H         -1.3879536922       -5.4780573504        0.0354513381
 H         -1.3458439828       -5.5952349699       -1.7731039920
 H         -1.3374226319       -3.0711590099       -1.9256491913
 O         -0.8868838509       -0.5432067801       -1.6506356307
