  62
        -98.93603446
 C          2.3964407547        1.0787541636        0.0196898436
 C          2.2802741474       -0.2439546119       -0.4740338346
 C          3.1884760292       -1.2313382051        0.1283130285
 C          4.0176228051       -0.8693122618        1.1228006167
 C          4.9723241944       -1.7707645432        1.8572949358
 C          6.3168300955       -1.9698383418        1.1442369786
 C          6.2666479017       -2.8509718449       -0.1045706879
 H          7.2988804961       -3.0820988551       -0.3748676424
 H          5.7746209853       -3.7936742601        0.1367291031
 C          5.5749246266       -2.2006492660       -1.3108307045
 H          6.1803294811       -2.3581910109       -2.2063705186
 H          5.5102553617       -1.1211752360       -1.1550397887
 C          4.1767619239       -2.7426477912       -1.6081898035
 H          4.2454350201       -3.7942250963       -1.8953225404
 H          3.7676614710       -2.1881723030       -2.4567333758
 C          3.1893775653       -2.6186683963       -0.4403347888
 H          2.1848204499       -2.8245701214       -0.8177063357
 H          3.4291950590       -3.3470853486        0.3337484862
 H          6.7219511852       -0.9894879716        0.8828783415
 H          7.0002047960       -2.4309903288        1.8609571812
 H          5.1619685860       -1.2989063672        2.8237471115
 H          4.5034546392       -2.7399162310        2.0296113829
 O          4.0667377837        0.4018414765        1.6025179116
 C          3.2858367985        1.4013192093        1.0500607270
 O          3.4687197501        2.5272753509        1.5545048054
 H         -0.2898040831        0.3071203095       -0.3508473596
 C         -0.6127053786        1.2106061011        0.1463413000
 C          0.2321736887        2.3123311186        0.1570877994
 C         -0.1964548994        3.4719996643        0.7905079125
 C         -1.4402205204        3.5235473330        1.3964962425
 C         -2.2796841930        2.4241089520        1.3829745129
 C         -1.8598674241        1.2603117417        0.7513053784
 N         -2.7019747830        0.1235772423        0.7333371750
 S         -4.1890832654        0.3441385444       -0.0439664098
 O         -3.9776312865        0.7364801981       -1.4211318607
 O         -4.9901230586        1.2405306867        0.7498892329
 C         -4.8606719863       -1.3031331195        0.0370413721
 C         -4.6978655983       -2.1552112726       -1.0381836275
 C         -5.2012068543       -3.4439499159       -0.9538004776
 C         -5.8515365537       -3.8564975951        0.1993557790
 C         -6.0059841191       -2.9893689635        1.2708471323
 C         -5.5061175080       -1.6994016034        1.1925640044
 H         -5.6094946093       -0.9885451798        1.9955077211
 H         -6.5137366457       -3.3139640493        2.1647099601
 H         -6.2424190134       -4.8598157266        0.2619636888
 H         -5.0840692953       -4.1194069463       -1.7860194242
 H         -4.1930138330       -1.7900970826       -1.9185376282
 H         -2.2290408260       -0.6559463863        0.2915691556
 H         -3.2558738391        2.4581950719        1.8379015587
 H         -1.7605035179        4.4309143841        1.8860706239
 H          0.4557928143        4.3331111552        0.8139846875
 C          1.5787611086        2.2440193954       -0.5158144409
 H          2.1405005922        3.1444564802       -0.2220490118
 C          1.4868466313        2.2458547443       -2.0374394947
 C          0.2137244224        2.0660837518       -2.8041678800
 C          0.8647909303        3.4132018399       -2.7452352298
 H          1.3443811150        3.8004061541       -3.6313800985
 H          0.3910632264        4.1665979337       -2.1334915404
 H         -0.7080406890        1.9204667306       -2.2617253226
 H          0.2627552462        1.5048751010       -3.7251903446
 H          2.3771524184        1.8251968027       -2.4942267632
 O          1.4662291197       -0.6083001629       -1.3625272554
