  62
        -98.94665668
 C         -2.0015212600       -1.4417502002       -0.0988965894
 C         -1.7382550701       -0.1747267603       -0.6706909596
 C         -2.9074870301        0.6911658596       -0.8634442599
 C         -4.1348418001        0.2374515896       -0.5507265699
 C         -5.4254781002        0.9927291595       -0.7175583302
 C         -5.7505347604        1.9373020396        0.4479669196
 C         -4.8845733305        3.1953261797        0.5278264595
 H         -4.8919784604        3.7017070195       -0.4378321706
 H         -5.3581879106        3.8638575398        1.2495224393
 C         -3.4363257005        2.9397309299        0.9681820797
 H         -3.1533994806        3.6690109100        1.7304648696
 H         -3.3654282405        1.9520630200        1.4295850298
 C         -2.4033083504        3.0347017898       -0.1549483702
 H         -1.4251962004        2.7839797599        0.2640533399
 H         -2.3621029804        4.0601942797       -0.5288141904
 C         -2.6690251402        2.0929943696       -1.3369135401
 H         -1.7831203701        2.0804230295       -1.9767864300
 H         -3.5167080201        2.4501708494       -1.9210720203
 H         -5.6686393804        1.3783824198        1.3831089197
 H         -6.7926419104        2.2454271795        0.3359836794
 H         -5.4016022101        1.5575131793       -1.6499265803
 H         -6.2176887001        0.2439505794       -0.7848531902
 O         -4.3499950701       -1.0076278303       -0.0468278398
 C         -3.2920927800       -1.8621102502        0.2211818205
 O         -3.6248006500       -2.9494140402        0.7350717006
 O         -0.5894155101        0.2172554198       -1.0001627796
 C         -0.8507797200       -2.3910661900        0.1825024608
 C          0.1816678399       -1.6967049598        1.0370988908
 C         -0.2288305903       -1.0959122297        2.2254500007
 C          0.6755088496       -0.4386274294        3.0358561107
 C          2.0098109296       -0.3592937894        2.6749893608
 C          2.4320870598       -0.9623284796        1.4972303609
 C          1.5222752699       -1.6373711898        0.6926105310
 H          1.8803473800       -2.0913490099       -0.2155474989
 N          3.7872033198       -0.9256944395        1.1205492911
 S          4.2432466399       -0.3621103898       -0.3885217490
 O          3.6245756601       -1.1539926700       -1.4189505589
 O          5.6899898799       -0.3749065496       -0.3556698488
 C          3.6735860498        1.3279277402       -0.4489052893
 C          4.5905516997        2.3366433703       -0.2205068194
 C          4.1586123996        3.6525691303       -0.2212327597
 C          2.8193062096        3.9371985001       -0.4423111598
 C          1.9129546597        2.9128237900       -0.6651277198
 C          2.3366300598        1.5922848101       -0.6687337295
 H          1.6367194499        0.7897101000       -0.8396160494
 H          0.8690719497        3.1223538999       -0.8376639599
 H          2.4795733895        4.9610401501       -0.4423899501
 H          4.8642199895        4.4495371003       -0.0496468697
 H          5.6222234397        2.0683145404       -0.0591133592
 H          4.3922295497       -0.5203898594        1.8211647511
 H          2.7181043895        0.1606220008        3.3023005108
 H          0.3398508694        0.0230560707        3.9522351406
 H         -1.2736948603       -1.1507088797        2.5013034106
 H         -1.2745207100       -3.2245780500        0.7617822109
 C         -0.2949720098       -2.9370300202       -1.1160742290
 C          0.3660978503       -4.2811041802       -1.1458292187
 C         -0.9829363297       -4.0948074604       -1.7714275889
 H         -1.0599264296       -4.1069738006       -2.8483763489
 H         -1.8442782697       -4.5086527504       -1.2670454689
 H          1.2198754604       -4.4188874202       -1.7924386886
 H          0.4229002102       -4.8310998800       -0.2184690086
 H          0.1019412902       -2.1629737003       -1.7638083091
