  62
        -98.94303166
 C          1.9482349965        0.0940147552       -0.2758031046
 C          2.8169396535       -0.7016540500        0.5113086389
 C          4.1389848612       -0.1215295940        0.7866983435
 C          4.4451722309        1.1080418528        0.3377796370
 C          5.7415105094        1.8384977287        0.5602655665
 C          6.8449143807        1.4659034294       -0.4396267040
 C          7.4616857915        0.0805471831       -0.2417765212
 H          8.3592707615        0.0387192619       -0.8620655758
 H          7.7779817252       -0.0297891247        0.7959571097
 C          6.5401755233       -1.0847413175       -0.6284194704
 H          5.7263243490       -0.7129585303       -1.2553109239
 H          7.0995032472       -1.8075620876       -1.2267398561
 C          5.9444618054       -1.8428121875        0.5578749737
 H          6.7442547310       -2.3306857473        1.1193659000
 H          5.2823268438       -2.6204171487        0.1691203345
 C          5.1332248155       -0.9684916487        1.5228689630
 H          4.5768375343       -1.6253088156        2.1957148078
 H          5.8001878551       -0.3434244966        2.1159442738
 H          6.4396203128        1.5437430706       -1.4512773757
 H          7.6381653591        2.2107447962       -0.3420069598
 H          5.5211275071        2.9024845304        0.4495461965
 H          6.0940722840        1.6607502251        1.5766050992
 O          3.5695899679        1.8586596478       -0.3828232587
 C          2.3231857107        1.3640807456       -0.7251336587
 O          1.6446371044        2.1418585556       -1.4276757288
 H         -1.5682910653        1.3023595657       -0.7009587496
 C         -1.4894610505        0.7431692545        0.2195199164
 C         -0.4486303202       -0.1560662003        0.4015652500
 C         -0.3643145238       -0.8475152601        1.6064056248
 C         -1.3002231974       -0.6358907301        2.6014759115
 C         -2.3473470532        0.2490009355        2.4096370721
 C         -2.4416043120        0.9435083526        1.2104161133
 N         -3.4975108421        1.8472526445        0.9800269824
 S         -4.4650211706        1.6083287692       -0.3655647831
 O         -3.7016613148        1.8188402368       -1.5681754349
 O         -5.6042065683        2.4753077952       -0.1639253247
 C         -4.9706223542       -0.0981135270       -0.2409754646
 C         -6.1578242154       -0.3958752971        0.3994013534
 C         -6.5160520337       -1.7239406019        0.5649269302
 C         -5.6783155385       -2.7272167190        0.1015114283
 C         -4.4883951675       -2.4119929350       -0.5362569127
 C         -4.1282679751       -1.0854114722       -0.7123654043
 H         -3.2119753245       -0.8056064182       -1.2054625226
 H         -3.8346576073       -3.1903364880       -0.8955499092
 H         -5.9538131707       -3.7612137324        0.2363268302
 H         -7.4426886152       -1.9721250804        1.0569093875
 H         -6.7792303539        0.4162429978        0.7407895160
 H         -4.0801055390        2.0046784684        1.7907162508
 H         -3.0817638358        0.4084114599        3.1848125101
 H         -1.2192023413       -1.1725530578        3.5344389143
 H          0.4521796697       -1.5359796634        1.7595849950
 C          0.5606799796       -0.3609324003       -0.7027203477
 H          0.2791355930        0.3005326040       -1.5338757768
 C          0.5373604895       -1.7918556809       -1.2048580366
 C         -0.4973724864       -2.1937608065       -2.2102817457
 C          0.9395156324       -2.0720871417       -2.6198859564
 H          1.4983315296       -2.9718936579       -2.8286660464
 H          1.2247894383       -1.2295148232       -3.2339445954
 H         -0.9280755748       -3.1806977391       -2.1416397725
 H         -1.1827146396       -1.4344267381       -2.5582778322
 H          0.8251531602       -2.5174874498       -0.4562042191
 O          2.5301293873       -1.8367924784        0.9725362287
