  62
        -98.93881729
 C         -1.9122843534       -0.6092772186       -0.5053539905
 C         -2.9757409250       -1.3586655359        0.0485491718
 C         -4.3297100537       -0.8057453388       -0.1263989617
 C         -4.4791633041        0.3523353744       -0.7926672861
 C         -5.7558566622        1.1084675741       -1.0369346185
 C         -5.9760906946        2.1699518194        0.0541978923
 C         -6.7059797356        1.6705095949        1.3005553729
 H         -6.6779837266        2.4762411588        2.0377393116
 H         -7.7541235017        1.4892307930        1.0534121027
 C         -6.1267693862        0.4031781746        1.9347378456
 H         -5.0373075432        0.4671117875        1.9539566907
 H         -6.4665854314        0.3625821698        2.9714739776
 C         -6.5629165087       -0.8837964601        1.2186986060
 H         -7.3801858354       -0.6516210696        0.5361596912
 H         -6.9627111082       -1.5873026636        1.9519357728
 C         -5.4500923247       -1.6215465450        0.4592315491
 H         -4.9545313389       -2.3262931527        1.1343108570
 H         -5.8999643652       -2.2199807351       -0.3399872256
 H         -4.9977848765        2.5694073627        0.3341401031
 H         -6.5551121744        2.9930341250       -0.3695406493
 H         -5.6374408843        1.6159131858       -1.9966173237
 H         -6.6005896187        0.4291335130       -1.1016992409
 O         -3.4262164688        1.0434411917       -1.3102773435
 C         -2.1232658934        0.5922342675       -1.1808259410
 O         -1.2692334051        1.3342800846       -1.7014849705
 H          1.7590634326        0.2936322335       -1.1459412498
 C          1.4430099717        0.5011936669       -0.1382052162
 C          0.3348178814       -0.1294366920        0.4029702750
 C         -0.0501027901        0.1944819018        1.7027478184
 C          0.6482780260        1.1343618956        2.4337328881
 C          1.7530313612        1.7654888474        1.8878737499
 C          2.1470908412        1.4498482003        0.5937396813
 N          3.2488913624        2.0966079390        0.0126110181
 S          4.3906762218        1.2512364361       -0.8647903685
 O          5.4973029526        2.1731235749       -0.9956408389
 O          3.8245624505        0.7545649898       -2.0920473352
 C          4.8553107380       -0.1008681201        0.2011938707
 C          5.7939439030        0.1354010906        1.1870920207
 C          6.1196591050       -0.8874740555        2.0624739914
 C          5.4976555869       -2.1212769042        1.9432469403
 C          4.5572731694       -2.3417974959        0.9490097609
 C          4.2294959220       -1.3234453350        0.0675083983
 H          3.5062253216       -1.4595516202       -0.7191124987
 H          4.0756983991       -3.3021359460        0.8556336451
 H          5.7486918211       -2.9170017208        2.6267574055
 H          6.8540591294       -0.7204474811        2.8338559489
 H          6.2614823710        1.1054139015        1.2373466005
 H          3.6925361619        2.7801249845        0.6083575863
 H          2.2965568137        2.5071088141        2.4533556973
 H          0.3340242293        1.3783840400        3.4373034995
 H         -0.9158480901       -0.2968455096        2.1255431757
 C         -0.4940738989       -1.1335455580       -0.3577347617
 H         -0.5846295856       -2.0412121682        0.2566783481
 C          0.0750013788       -1.5162301774       -1.7065834565
 C          1.1355559025       -2.5706240929       -1.8003768067
 C         -0.2552288008       -2.8617932690       -2.2769936143
 H         -0.4334184569       -2.9413690925       -3.3389128402
 H         -0.8744982387       -3.5152229752       -1.6799136429
 H          1.9167106182       -2.4505641989       -2.5367768607
 H          1.4562480686       -3.0360819391       -0.8804482835
 H          0.1204345018       -0.6832224854       -2.3994843034
 O         -2.8013551168       -2.4409065649        0.6714597773
