  62
        -98.93740862
 C         -2.6835340290       -0.2433397722       -0.4464669141
 C         -2.1805798158       -0.7310222053        0.7844637649
 C         -1.5566146312       -2.0609828166        0.7455617553
 C         -1.4986430814       -2.7264091636       -0.4220356555
 C         -0.7858861342       -4.0290393319       -0.6481258958
 C          0.7296276762       -3.7703927928       -0.7772829830
 C          1.5719242857       -4.3795116841        0.3437999785
 H          1.6531158108       -5.4573593450        0.1845371798
 H          2.5741474362       -3.9534579499        0.2625195306
 C          1.0518420483       -4.1532652597        1.7665399028
 H          1.8732359049       -4.3871045438        2.4472463351
 H          0.2543085983       -4.8662159583        1.9829504826
 C          0.5420967342       -2.7402414114        2.0808015761
 H          0.9927228874       -2.0010888586        1.4157452255
 H          0.8572764412       -2.4789837080        3.0936404186
 C         -0.9908872215       -2.5907720677        2.0328741402
 H         -1.4630938731       -3.5462775242        2.2794245747
 H         -1.2928133417       -1.8639375744        2.7928636470
 H          1.0860768907       -4.1694796809       -1.7286352242
 H          0.8940599354       -2.6907060278       -0.8060670707
 H         -0.9912827893       -4.7106772255        0.1742305855
 H         -1.1779960869       -4.4608907230       -1.5694321882
 O         -2.0208063614       -2.2378471243       -1.5777389397
 C         -2.5861667880       -0.9747128209       -1.6277213548
 O         -2.9608432644       -0.6211300196       -2.7662388898
 H         -0.7122613053        1.0800491390       -1.3913375526
 C         -0.8331018372        1.8672050493       -0.6555747352
 C         -2.0894115299        2.1011439710       -0.1097991712
 C         -2.2177149858        3.1177199348        0.8267137418
 C         -1.1087801050        3.8387686424        1.2385340157
 C          0.1497391496        3.5563671079        0.7375598135
 C          0.2786599575        2.5677565397       -0.2253078394
 N          1.5801973387        2.2087969584       -0.6994208192
 S          2.0708690835        0.7747572350        0.0646058337
 O          1.4887569197       -0.3735313957       -0.6010183489
 O          1.8176165715        0.9115509558        1.4748389916
 C          3.8287339922        0.8126518105       -0.2330869740
 C          4.3913616761       -0.0197283426       -1.1802946847
 C          5.7565465167        0.0540948499       -1.4114281012
 C          6.5292711040        0.9576388542       -0.6984848067
 C          5.9490078322        1.7885368306        0.2488617653
 C          4.5859398410        1.7177043995        0.4855188800
 H          4.0900530574        2.3347657355        1.2161676710
 H          6.5534551681        2.4889511273        0.8022392394
 H          7.5908186115        1.0133542800       -0.8809333649
 H          6.2098004665       -0.5922889078       -2.1457409565
 H          3.7526324502       -0.7102829489       -1.7078367406
 H          1.5628743246        2.0144271950       -1.6934942623
 H          1.0263229119        4.0772986039        1.0857033430
 H         -1.2248644143        4.6139216175        1.9806637483
 H         -3.1839090220        3.3277014748        1.2561957513
 C         -3.2101647860        1.1804585654       -0.5317056259
 H         -3.4343352437        1.3622353665       -1.5930889458
 C         -4.4778475025        1.3495544397        0.2763063897
 C         -5.4735909135        2.4045880296       -0.0997417385
 C         -5.7862240240        0.9591011065       -0.3402206322
 H         -6.5252959903        0.4781820435        0.2824730708
 H         -5.7640669226        0.5901413610       -1.3554595293
 H         -5.2479313473        3.0223203661       -0.9557612332
 H         -6.0036504934        2.9170830995        0.6886313349
 H         -4.3322077199        1.1285423877        1.3271770626
 O         -2.2463436654       -0.0828690620        1.8622852498
