  62
        -98.93438638
 C         -2.6547190001       -0.1431281214        0.2459675801
 C         -2.4020964198       -1.0445635817       -0.8169825495
 C         -1.8127602290       -2.3538879412       -0.4859262191
 C         -1.5335621387       -2.6231558905        0.8022814910
 C         -0.9023572679       -3.8560126000        1.3966944014
 C          0.6108086421       -3.9257531892        1.1552335712
 C          1.0367053017       -3.6842894796       -0.2898390890
 H          0.7646798411       -2.6663773799       -0.5756307293
 H          2.1285289918       -3.7410739090       -0.3222936891
 C          0.4863727521       -4.6820763603       -1.3076920385
 H          0.7500970427       -5.6946493400       -0.9941573081
 H          0.9947565619       -4.4837410004       -2.2544128986
 C         -1.0225623679       -4.6250474212       -1.5678424983
 H         -1.5806372975       -5.1719781112       -0.8119817180
 H         -1.2078986578       -5.1335874017       -2.5183145180
 C         -1.5868344287       -3.2151245116       -1.7043181688
 H         -0.9496964892       -2.6303267815       -2.3779272191
 H         -2.5610823788       -3.2700751923       -2.2046914686
 H          1.0897698618       -3.1615319787        1.7741151308
 H          0.9647499527       -4.9047015389        1.4860447815
 H         -1.0800558278       -3.8050839996        2.4736614714
 H         -1.3907396275       -4.7503086304        1.0205408618
 O         -1.8014082390       -1.7311208903        1.7976159307
 C         -2.3283143397       -0.4699480707        1.5614100302
 O         -2.4691693800        0.2093550997        2.5957544300
 O         -2.6701016501       -0.7631797823       -2.0181787996
 C         -3.1568669609        1.2311142382       -0.1650770203
 C         -2.0053325314        1.9985932786       -0.7687901508
 C         -2.1632263320        2.7802613580       -1.9069106911
 C         -1.0776838325        3.4299580284       -2.4681358015
 C          0.1878732677        3.2842240693       -1.9288500217
 C          0.3551771283        2.5024004998       -0.7917119814
 C         -0.7429553313        1.8945009095       -0.2044290110
 H         -0.5971141708        1.2966040299        0.6838034692
 N          1.6218765385        2.2955954608       -0.2172387915
 S          1.9222730794        0.7216682411        0.3407867691
 O          1.3523108698       -0.2402504195       -0.5730654204
 O          1.5121139697        0.6321989915        1.7199487292
 C          3.7037826194        0.6826865721        0.2566868089
 C          4.3293481797       -0.0447197180       -0.7372641709
 C          5.7144300297       -0.0384697973       -0.8010053611
 C          6.4449825094        0.6940903935        0.1221578884
 C          5.8024201992        1.4193534636        1.1150510383
 C          4.4186417192        1.4151838628        1.1862890185
 H          3.8751530690        1.9535175029        1.9452897783
 H          6.3733723390        1.9857798642        1.8328727779
 H          7.5221611094        0.6979949341        0.0694755783
 H          6.2163077299       -0.6042217873       -1.5692184510
 H          3.7181929799       -0.6014616086       -1.4295005106
 H          2.3756402282        2.6271111209       -0.8049302117
 H          1.0403117174        3.7617579996       -2.3875515420
 H         -1.2131288229        4.0339524479       -3.3524300518
 H         -3.1373729721        2.8538635673       -2.3675160210
 H         -3.8858587709        1.0526847775       -0.9733387902
 C         -3.8685470812        2.0034916582        0.9324636994
 C         -3.2103380917        3.1029183489        1.7051602189
 C         -4.2827366820        3.4285046279        0.7117403989
 H         -5.2470522221        3.7444702376        1.0792890389
 H         -3.9801905124        3.9024681377       -0.2093135013
 H         -3.4287038215        3.1725160792        2.7595270289
 H         -2.1887451418        3.3504816694        1.4594193487
 H         -4.5569476608        1.3753078981        1.4871608798
