  62
        -98.94097279
 C         -1.6772027956       -1.4635941546        0.4180262760
 C         -1.8150827439       -0.2930534730        1.2083300936
 C         -3.0685856170        0.4530171859        1.0568015875
 C         -3.9846566994        0.0352399996        0.1642302824
 C         -5.3232782231        0.6707419714       -0.0977679454
 C         -5.2721792345        1.8718696881       -1.0520840466
 C         -4.6755417091        3.1495859798       -0.4604732433
 H         -4.9048914695        3.9608127009       -1.1542126844
 H         -5.1729885424        3.3780751059        0.4826643517
 C         -3.1564618429        3.1000001260       -0.2445308251
 H         -2.7070369623        4.0241099162       -0.6149849578
 H         -2.7362458996        2.2770925564       -0.8279964135
 C         -2.7320613817        2.9425836799        1.2155509734
 H         -1.6407785101        2.9067902025        1.2627856712
 H         -3.0606956663        3.8129114465        1.7879832425
 C         -3.2739492275        1.6790604309        1.8957556922
 H         -2.7284119507        1.5340341967        2.8318200220
 H         -4.3325675397        1.8017542461        2.1259257753
 H         -6.2983841080        2.0856979606       -1.3594968043
 H         -4.7112668896        1.5854862552       -1.9445428476
 H         -5.9492612745       -0.1017584696       -0.5494673555
 H         -5.7752150366        0.9745680034        0.8471249017
 O         -3.7953814788       -1.0618380030       -0.6124538281
 C         -2.6505546514       -1.8450135533       -0.5073294054
 O         -2.6428961703       -2.8191764489       -1.2800775939
 H          2.0682292258       -1.4338518786        1.2408928635
 C          1.8979833575       -1.4897246819        0.1761126356
 C          0.6690624460       -1.9049766600       -0.3145422644
 C          0.4741323293       -1.9393491645       -1.6927579180
 C          1.4959352048       -1.5809156131       -2.5524805613
 C          2.7180279065       -1.1566440704       -2.0584924145
 C          2.9159624711       -1.1021274123       -0.6850722270
 N          4.1321287308       -0.6439042757       -0.1404924765
 S          4.0367653078        0.6670964479        0.9059627199
 O          5.3869747019        1.1816065068        0.9753228178
 O          3.4491242736        0.2566088491        2.1532234393
 C          2.9911603396        1.8126682838        0.0262083412
 C          3.5975165555        2.6563475885       -0.8853569901
 C          2.8088407417        3.4759955360       -1.6749500850
 C          1.4284004305        3.4224825574       -1.5549708379
 C          0.8366339346        2.5690750493       -0.6375268976
 C          1.6190215075        1.7561739717        0.1685747070
 H          1.1724997076        1.0951097597        0.8957194644
 H         -0.2366686225        2.5209392188       -0.5442011081
 H          0.8084119691        4.0482669773       -2.1773046702
 H          3.2686967882        4.1449480541       -2.3843314778
 H          4.6740164434        2.6618794291       -0.9459635732
 H          4.8448003478       -0.4688215390       -0.8358448782
 H          3.5112442474       -0.8667986323       -2.7308357026
 H          1.3361691242       -1.6217484325       -3.6192257402
 H         -0.4845030601       -2.2545184479       -2.0765328192
 C         -0.4254969725       -2.2932687071        0.6448552974
 H         -0.0857439288       -2.0079441236        1.6540376357
 C         -0.6989546662       -3.7916062023        0.6712309160
 C         -0.1585831309       -4.7588809543       -0.3348113928
 C          0.4002484389       -4.7385534235        1.0540556390
 H          0.1731017739       -5.5562207268        1.7212151652
 H          1.3865532553       -4.3191689814        1.1895308827
 H         -0.7963652823       -5.5787997272       -0.6277616376
 H          0.4560332038       -4.3798648551       -1.1354245540
 H         -1.6868262611       -4.0143800197        1.0619331176
 O         -0.9335519984        0.0979235102        2.0208258916
