  62
        -98.93840159
 C          2.0902703577        0.8172051421       -0.4943478318
 C          3.1177653593        1.1446344034        0.4190654421
 C          4.4124477093        0.4586493597        0.2441963702
 C          4.5418797816       -0.4298227889       -0.7588439355
 C          5.7388914963       -1.2760253971       -1.1017477479
 C          5.9124623256       -2.4694786052       -0.1480300256
 C          5.7141778687       -2.1463103192        1.3306978130
 H          4.7176875301       -1.7244781017        1.4743717561
 H          5.7489768067       -3.0887781128        1.8837039552
 C          6.7560702977       -1.2099209487        1.9380875874
 H          7.7461585764       -1.6587930689        1.8310681733
 H          6.5400887426       -1.1343246981        3.0069184395
 C          6.8005164282        0.2064428626        1.3611952234
 H          7.3053050557        0.2217177159        0.3990095412
 H          7.4069953903        0.8144414671        2.0389663361
 C          5.4436179109        0.8956419649        1.2568819500
 H          4.9447094635        0.8525006774        2.2317445978
 H          5.6094966750        1.9629538162        1.0662098154
 H          5.1772017407       -3.2298537689       -0.4228228013
 H          6.9071100501       -2.8916460712       -0.3009534923
 H          5.5731681707       -1.6595944483       -2.1109289748
 H          6.6351356971       -0.6631882055       -1.1238569876
 O          3.5198343150       -0.7169085729       -1.6151789636
 C          2.2789126997       -0.1157208621       -1.5127620151
 O          1.4548278453       -0.4842798069       -2.3715525136
 O          2.9634602120        1.9749949985        1.3553202910
 C          0.7366478143        1.4892565143       -0.3439687623
 C         -0.2992272172        0.4389556979       -0.0304844341
 C         -0.1737794001       -0.2845094846        1.1534004237
 C         -1.0762753474       -1.2792464931        1.4752015396
 C         -2.1273613981       -1.5747149617        0.6241304377
 C         -2.2666573736       -0.8538830361       -0.5535805177
 C         -1.3629286847        0.1535276985       -0.8706316978
 H         -1.4825179157        0.6969284997       -1.7944049264
 N         -3.3364461109       -1.1420720065       -1.4156199336
 S         -4.8554194763       -1.3583979914       -0.7522047005
 O         -4.9704979633       -2.6906582467       -0.2132120679
 O         -5.7817318982       -1.0239554867       -1.8109611440
 C         -4.9546633576       -0.1613429807        0.5676758490
 C         -5.0918755363       -0.5827606259        1.8743049677
 C         -5.1283327792        0.3655308478        2.8842802836
 C         -5.0243004861        1.7117069013        2.5714414303
 C         -4.8910952987        2.1197927260        1.2528824303
 C         -4.8544200671        1.1763625471        0.2394413668
 H         -4.7579625437        1.4609093191       -0.7959099570
 H         -4.8125967820        3.1678051334        1.0120732232
 H         -5.0479341752        2.4484118712        3.3589019024
 H         -5.2341183433        0.0512819226        3.9101239208
 H         -5.1683975669       -1.6391696897        2.0738206871
 H         -3.3663015890       -0.5705126150       -2.2464057233
 H         -2.8305666802       -2.3603226614        0.8479082689
 H         -0.9607331107       -1.8345525732        2.3935999258
 H          0.6514606162       -0.0581861053        1.8145591268
 H          0.8351427950        2.1444618490        0.5332002437
 C          0.4148455990        2.3392460841       -1.5539754295
 C         -0.5850847599        3.4499617854       -1.4393079587
 C          0.8728270795        3.7654015432       -1.5829516719
 H          1.2245617735        4.1738960658       -2.5185293632
 H          1.4059503214        4.1341500790       -0.7189895178
 H         -1.2362488224        3.6485145629       -2.2772217157
 H         -1.0432178602        3.6081684270       -0.4750253615
 H          0.4625905530        1.7843275236       -2.4841605217
