  62
        -98.94118181
 C         -2.1425988136       -0.8124951005       -0.3450198887
 C         -3.0636677139       -0.5879743479        0.7129222510
 C         -3.6105631309        0.7683899164        0.8327757296
 C         -3.1968640239        1.7182895473       -0.0251113816
 C         -3.6945138616        3.1338338966       -0.0467911071
 C         -4.8991440649        3.2876573490       -0.9858333547
 C         -5.9911378635        2.2410749662       -0.7645711782
 H         -5.6005194861        1.2571504569       -1.0338773496
 H         -6.8028387809        2.4664430495       -1.4594950737
 C         -6.5424730273        2.1917410790        0.6672003517
 H         -7.6318936132        2.1334856131        0.6209276975
 H         -6.2892951409        3.1125043692        1.1939144528
 C         -6.0673257927        0.9917614547        1.4886641359
 H         -6.2321753867        0.0717846068        0.9223211702
 H         -6.6798987899        0.9340909006        2.3922476773
 C         -4.5998342634        1.0260529927        1.9344137718
 H         -4.4532356919        0.2222986861        2.6618565295
 H         -4.3860430607        1.9768068243        2.4273836624
 H         -4.5470326742        3.2031481590       -2.0164793992
 H         -5.3163840710        4.2870104591       -0.8497920017
 H         -2.8846035236        3.7760295457       -0.3973911269
 H         -3.9671327712        3.4309588185        0.9641587623
 O         -2.2989863986        1.4761604159       -1.0109756337
 C         -1.7497132060        0.2165679571       -1.2008137604
 O         -0.9463345928        0.1716727977       -2.1554273006
 O         -3.4157097288       -1.4902114617        1.5192212277
 C         -1.5766675447       -2.2195503834       -0.4605963691
 C         -0.2190986896       -2.2894635137        0.1978813026
 C         -0.0140438735       -3.0567219469        1.3383412441
 C          1.2222204714       -3.0797642683        1.9609516734
 C          2.2765892471       -2.3339385318        1.4648145371
 C          2.0776443783       -1.5586490553        0.3306427300
 C          0.8441129990       -1.5504290023       -0.3015965619
 H          0.6958497087       -0.9337580216       -1.1760240593
 N          3.1427645488       -0.7671747239       -0.1710733390
 S          3.5084930271        0.5793631654        0.7882850466
 O          3.7468309481        0.1307511136        2.1360172213
 O          2.4935425226        1.6007681839        0.6245092315
 C          5.0377288720        1.1132129296        0.0457269423
 C          5.0076303636        2.0667687194       -0.9532569494
 C          6.1984424448        2.4507627641       -1.5497418538
 C          7.3918642445        1.8748893182       -1.1411761266
 C          7.4056987532        0.9185009814       -0.1368662082
 C          6.2185923650        0.5306486163        0.4634490126
 H          6.1809224648       -0.2018062131        1.2524428830
 H          8.3358967641        0.4749333533        0.1795528131
 H          8.3167340840        2.1759013988       -1.6073285254
 H          6.1898482351        3.1957753194       -2.3291089271
 H          4.0581092874        2.4954845720       -1.2326308684
 H          2.9115148165       -0.4144745240       -1.0927098256
 H          3.2357748409       -2.3226135246        1.9548547263
 H          1.3646521318       -3.6803391094        2.8465653114
 H         -0.8390873505       -3.6207435954        1.7488337398
 H         -2.2610399635       -2.8516240687        0.1211779005
 C         -1.5299817582       -2.7450004135       -1.8814682558
 C         -1.4710072410       -4.2254569076       -2.1044412376
 C         -2.7203690046       -3.4667601328       -2.4349312507
 H         -2.9764388271       -3.3155751937       -3.4727712503
 H         -3.5768552574       -3.5871422655       -1.7875852112
 H         -0.8662459043       -4.5993640095       -2.9160582151
 H         -1.4808746704       -4.8622509503       -1.2329114876
 H         -0.9760613412       -2.1095102643       -2.5597138661
