  62
        -98.93817165
 C         -2.6522790728       -1.1981686458       -0.3008553602
 C         -3.3903452885       -0.5056774430        0.6944522476
 C         -3.9610927511        0.7899265644        0.3074899146
 C         -3.7721105949        1.2401364391       -0.9457953073
 C         -4.2417072103        2.5684977877       -1.4621652067
 C         -3.1653889513        3.6468152725       -1.2732284256
 C         -2.5740990775        3.6918497281        0.1361569485
 H         -2.0123675131        2.7719062124        0.3197763552
 H         -1.8509493912        4.5103728052        0.1592029611
 C         -3.6084756304        3.8893599507        1.2534472479
 H         -4.5362664191        4.2796608203        0.8335557954
 H         -3.2275840840        4.6370619327        1.9522103995
 C         -3.9108975820        2.6310347588        2.0694778726
 H         -2.9735446735        2.1831439662        2.4106560376
 H         -4.4733084993        2.9294622896        2.9581677688
 C         -4.7290747913        1.5504596109        1.3511092774
 H         -5.0317892499        0.8112858963        2.0984350603
 H         -5.6287662589        1.9949597882        0.9210840783
 H         -3.6018951888        4.6171895771       -1.5166590677
 H         -2.3515161947        3.4535246943       -1.9762296270
 H         -4.4587574215        2.4674851339       -2.5268525543
 H         -5.1526619631        2.8540079203       -0.9398926642
 O         -3.0776731436        0.5444948634       -1.8792809423
 C         -2.4760645240       -0.6735793298       -1.5814261914
 O         -1.8371059045       -1.1555160687       -2.5359529248
 H         -0.0101846692       -1.1973804008       -1.0869968480
 C          0.2792982498       -1.5624640287       -0.1115924553
 C         -0.6349424745       -2.2870660048        0.6411714088
 C         -0.2465716986       -2.7463383628        1.8935534406
 C          1.0228454820       -2.4808748317        2.3778484377
 C          1.9291849336       -1.7563426964        1.6246852084
 C          1.5507917224       -1.2923628687        0.3718834986
 N          2.4653440673       -0.5528616126       -0.4106406781
 S          2.9576654464        0.9571080038        0.1615449696
 O          2.6980087704        1.0488757155        1.5772595747
 O          2.3659658369        1.9838773212       -0.6712286085
 C          4.7182620747        0.9142157901       -0.1186712262
 C          5.3329976954        1.9644755443       -0.7708526467
 C          6.7056408098        1.9249879000       -0.9625545580
 C          7.4361790399        0.8410594244       -0.5013151233
 C          6.8037573831       -0.2080877341        0.1491714579
 C          5.4324973992       -0.1733728065        0.3443898961
 H          4.9061628871       -0.9723490054        0.8395775501
 H          7.3736083330       -1.0519207452        0.5035759044
 H          8.5038895755        0.8123998255       -0.6511198657
 H          7.1979339750        2.7387737624       -1.4703462390
 H          4.7246105257        2.7843701177       -1.1169191516
 H          2.1311027558       -0.4284048049       -1.3571349866
 H          2.9078637120       -1.5236728685        2.0105000862
 H          1.3082945262       -2.8379444649        3.3556133269
 H         -0.9548864804       -3.2942208865        2.4976245464
 C         -2.0298334351       -2.5196481884        0.1179231481
 H         -2.6454701483       -2.8610455002        0.9651870314
 C         -2.0996408636       -3.5947508196       -0.9569405869
 C         -0.9006666650       -4.1307421436       -1.6745842693
 C         -1.6018249289       -4.9783511924       -0.6587485996
 H         -2.1834329578       -5.8223732802       -0.9966389025
 H         -1.1061360036       -5.1311133740        0.2881579579
 H         -1.0125832429       -4.3682580803       -2.7214137740
 H          0.0687472854       -3.7305721261       -1.4228277212
 H         -3.0112928131       -3.5205577161       -1.5410347771
 O         -3.5657275462       -0.9587981026        1.8573147254
