  62
        -98.94075408
 C          2.0248352995        1.3388604997        0.3737029093
 C          2.5029166789        0.6384576229       -0.7617632710
 C          3.7069053512       -0.1816214343       -0.5479403566
 C          4.2669641791       -0.2359017398        0.6732533321
 C          5.4571607254       -1.0741258077        1.0377287215
 C          5.0261477107       -2.4575588220        1.5448514913
 C          4.0109582397       -3.1584930705        0.6416435328
 H          3.8031696982       -4.1359431001        1.0827165464
 H          3.0736213373       -2.5969122580        0.6524473067
 C          4.4727106732       -3.3410972443       -0.8109610082
 H          5.5559951539       -3.2301453867       -0.8716979480
 H          4.2326286463       -4.3579135235       -1.1288236917
 C          3.8093930518       -2.3935079110       -1.8124377311
 H          2.7232870334       -2.4331495071       -1.6926025347
 H          4.0386655642       -2.7502491564       -2.8201332819
 C          4.2496247864       -0.9261214127       -1.7350790982
 H          5.3395352655       -0.8665654030       -1.7638705834
 H          3.8526459163       -0.4155521052       -2.6173999145
 H          5.9161094134       -3.0812136949        1.6461435189
 H          4.5793362884       -2.3400752754        2.5349402901
 H          6.1018172516       -1.1790479668        0.1673716143
 H          6.0092278960       -0.5633239473        1.8285490851
 O          3.7684850486        0.4339665286        1.7438410401
 C          2.6287255121        1.2134035461        1.6271348763
 O          2.2512070627        1.7293738749        2.6984741856
 H         -0.2223718261       -0.1570102302        0.9692309214
 C         -0.7107887749        0.2263078995        0.0808162359
 C         -0.3159109704        1.4593410258       -0.4259791422
 C         -0.9523535590        1.9423627665       -1.5607223385
 C         -1.9366083955        1.1939700555       -2.1837078170
 C         -2.3117672344       -0.0408995113       -1.6892169154
 C         -1.6900749529       -0.5278856017       -0.5457726563
 N         -2.0712710475       -1.7770028981       -0.0273087910
 S         -3.7041984624       -2.1308069318        0.0552946311
 O         -3.8326572443       -3.0651565790        1.1519374329
 O         -4.1663917696       -2.6006119710       -1.2269205214
 C         -4.5018960803       -0.5850374385        0.4533861611
 C         -5.4324358807       -0.0464948316       -0.4115305962
 C         -6.0178702003        1.1688793504       -0.0944145855
 C         -5.6608701427        1.8230271312        1.0742033378
 C         -4.7266254385        1.2672454146        1.9351417084
 C         -4.1402604333        0.0513714329        1.6243358436
 H         -3.4146437381       -0.4090089371        2.2759814595
 H         -4.4499165413        1.7769929544        2.8441435820
 H         -6.1128814976        2.7713898742        1.3181425116
 H         -6.7462718498        1.6022396787       -0.7605727051
 H         -5.6780314382       -0.5874844245       -1.3108234051
 H         -1.5935965119       -2.0355578444        0.8228491089
 H         -3.0602644128       -0.6438333439       -2.1772660398
 H         -2.4129432359        1.5749562028       -3.0740345121
 H         -0.6579180821        2.8913662366       -1.9766842965
 C          0.7742298551        2.1999814768        0.3099098322
 H          0.4539292144        2.3075217141        1.3596601865
 C          1.0088048557        3.6094240768       -0.2124541293
 C          2.3408250930        4.2786469868       -0.0554025916
 C          1.8527415891        3.8916646152       -1.4175008531
 H          1.5388601908        4.6774804143       -2.0891243682
 H          2.3133508761        3.0522008705       -1.9130022371
 H          3.1421778092        3.7031390620        0.3853739133
 H          2.3605186339        5.3253351761        0.2089070095
 H          0.1378876663        4.2415558973       -0.0693949327
 O          1.9648546342        0.6842252290       -1.8969553556
