  62
        -98.94114702
 C         -2.1268168961       -0.2492628673       -0.6836990116
 C         -2.2681617130       -0.8729032381        0.5809122959
 C         -1.6870280031       -2.2194888176        0.7020582576
 C         -1.0780601535       -2.7777199950       -0.3590398587
 C         -0.4263213024       -4.1299189752       -0.3629444750
 C          1.0607609079       -4.0589935474        0.0133635124
 C          1.3525807157       -3.2264584532        1.2613472584
 H          2.4296874867       -3.2725330876        1.4381169785
 H          1.1131588297       -2.1783540524        1.0668724508
 C          0.6087878837       -3.6861505396        2.5225483377
 H          1.3083379578       -3.6794256568        3.3610461933
 H          0.2614770014       -4.7125863029        2.3963861220
 C         -0.5702790159       -2.7968964187        2.9218194843
 H         -0.2477389782       -1.7517478805        2.9454171781
 H         -0.8706123668       -3.0672071741        3.9378640291
 C         -1.8160769744       -2.9041508767        2.0328287029
 H         -2.0852907115       -3.9546318680        1.9038250645
 H         -2.6371396043       -2.3992422204        2.5502633367
 H          1.6166164687       -3.6236489008       -0.8191611215
 H          1.4223776364       -5.0774852908        0.1659533027
 H         -0.5166814097       -4.5497063082       -1.3663553881
 H         -0.9540925719       -4.7757340796        0.3365277294
 O         -0.9673221003       -2.1499446334       -1.5580409633
 C         -1.4577770893       -0.8659283749       -1.7415671056
 O         -1.2380393427       -0.3910582184       -2.8735509042
 O         -2.8533948706       -0.3458070091        1.5614454516
 C         -2.6110488404        1.1772677883       -0.9080903229
 C         -1.7356003868        2.0508171871       -0.0429111134
 C         -2.1441230850        2.5820908956        1.1729917735
 C         -1.2346034297        3.2196699153        1.9998146391
 C          0.0935378066        3.3361526333        1.6331090597
 C          0.5033707177        2.8374208600        0.4044034405
 C         -0.4099690072        2.2158609925       -0.4307610843
 H         -0.0898805848        1.8136777745       -1.3847258773
 N          1.8764955257        2.9377059215        0.0648873540
 S          2.8598848887        1.7552114581        0.7496023488
 O          2.1663475660        1.1764533812        1.8724178587
 O          4.1350213616        2.3723564587        1.0346997004
 C          3.0892292250        0.5518770912       -0.5501519847
 C          4.3079208784        0.4766641075       -1.1960246106
 C          4.4572570158       -0.4144328949       -2.2467144202
 C          3.3840250402       -1.1959847690       -2.6463453412
 C          2.1645836491       -1.1063273104       -1.9919095504
 C          2.0163945673       -0.2323558394       -0.9267657512
 H          1.0808250137       -0.1465038081       -0.3930002034
 H          1.3188450877       -1.6923890530       -2.3163386059
 H          3.4923568687       -1.8790142689       -3.4740867384
 H          5.4043141728       -0.4900045469       -2.7561497086
 H          5.1079731982        1.1151428707       -0.8583842722
 H          2.0416545077        2.9822107548       -0.9311179525
 H          0.8234821920        3.7915170622        2.2831712089
 H         -1.5620128113        3.6119272705        2.9508057568
 H         -3.1671737886        2.4663990287        1.4896815915
 H         -2.4040171307        1.4084262747       -1.9615049104
 C         -4.0943385260        1.3272927865       -0.6552751040
 C         -4.8058766981        2.5409174862       -1.1713172691
 C         -5.0460848669        1.2047750500       -1.8055502844
 H         -5.9944440248        0.7166825436       -1.6384176159
 H         -4.6269583263        1.0191068130       -2.7838035973
 H         -5.5910772049        2.9733642313       -0.5704374052
 H         -4.2220544310        3.2649025377       -1.7194416379
 H         -4.4101166371        0.9162292721        0.2952565857
