  62
        -98.94405852
 C         -1.9925146564       -1.1812395253       -0.1119934821
 C         -2.4468169668       -0.1444950466       -0.9622092775
 C         -3.8790613934        0.1677924455       -0.8721552427
 C         -4.6694903520       -0.5390248696       -0.0441209265
 C         -6.1518167466       -0.3557045155        0.1374038237
 C         -6.5256897651        0.7513180114        1.1326145549
 C         -6.2922699140        2.1784297413        0.6352701564
 H         -6.7712167633        2.3065885234       -0.3359615308
 H         -6.7940402425        2.8483341681        1.3363920693
 C         -4.8140725871        2.5818608249        0.5397845616
 H         -4.6770913820        3.5720134306        0.9802879472
 H         -4.2069730746        1.8866462335        1.1243056251
 C         -4.2628586405        2.6408232046       -0.8849985340
 H         -4.7712147525        3.4310584168       -1.4420731081
 H         -3.2011890724        2.8961279595       -0.8306590060
 C         -4.3948884657        1.3280213330       -1.6683029728
 H         -5.4331153563        1.1638437054       -1.9560468372
 H         -3.7878044527        1.4069142595       -2.5735017008
 H         -7.5877986450        0.6384576613        1.3619392256
 H         -5.9673368542        0.5925107005        2.0580708796
 H         -6.6173758796       -0.1519485344       -0.8272021114
 H         -6.5380499337       -1.3041581776        0.5169602783
 O         -4.1969449736       -1.5471663389        0.7362650605
 C         -2.8503099095       -1.8713346146        0.7453776981
 O         -2.5448016039       -2.7799457550        1.5436043013
 O         -1.7030983949        0.4853604258       -1.7584972812
 C         -0.5220634966       -1.5615640717       -0.0892011326
 C          0.2923406400       -0.3597172456        0.3209629080
 C          0.0869848580        0.1844535490        1.5863255034
 C          0.8066241630        1.2844641636        2.0117663866
 C          1.7494193654        1.8687809041        1.1827873970
 C          1.9577180720        1.3362476149       -0.0806222858
 C          1.2394102439        0.2251697900       -0.5032451527
 H          1.4148852777       -0.1717254964       -1.4905556133
 N          2.9422007881        1.9113725211       -0.9158177933
 S          4.5112139069        1.7483113998       -0.3455503458
 O          4.7106489303        2.6536223107        0.7568018726
 O          5.3699389957        1.9369950243       -1.4926772289
 C          4.5801780849        0.0594973544        0.2247775911
 C          4.7510650632       -0.9428243179       -0.7093308101
 C          4.7027408988       -2.2630110319       -0.2927574339
 C          4.4734686542       -2.5561637484        1.0429707521
 C          4.3033331121       -1.5383387605        1.9684732153
 C          4.3543185310       -0.2158446184        1.5581328041
 H          4.2269795516        0.6039924863        2.2456247052
 H          4.1243847900       -1.7700374110        3.0061028229
 H          4.4273469138       -3.5849080189        1.3645560468
 H          4.8359579649       -3.0579449989       -1.0089070975
 H          4.9313303221       -0.6738299036       -1.7378294708
 H          2.8916576803        1.5776494774       -1.8683556131
 H          2.3304076154        2.7205298971        1.4978816371
 H          0.6335023994        1.6926371345        2.9960877824
 H         -0.6510660305       -0.2714444546        2.2327344783
 H         -0.4191022994       -2.3231170647        0.6962600549
 C         -0.1001675252       -2.1662210117       -1.4115387975
 C          1.1426646983       -3.0012867019       -1.4816977505
 C         -0.2039309760       -3.6484111996       -1.5996082244
 H         -0.5141635409       -4.0245101373       -2.5630248187
 H         -0.5705334282       -4.2303136026       -0.7666922152
 H          1.7578189175       -2.9376959857       -2.3665098313
 H          1.6989170432       -3.1428039186       -0.5674744291
 H         -0.3454370281       -1.5375897004       -2.2597636622
