  62
        -98.94637471
 C         -1.7803303823       -0.7358551246        0.2471276338
 C         -3.0740943001       -0.9563732857        0.7775236747
 C         -3.9846150941        0.1932433112        0.7368144880
 C         -3.5546294443        1.3683220139        0.2418310156
 C         -4.3575928476        2.6377403771        0.1534226486
 C         -5.2565740894        2.7222622726       -1.0877883390
 C         -6.4868650877        1.8144298165       -1.0636778998
 H         -7.0352838920        1.9715845595       -0.1343629221
 H         -7.1356601304        2.1326196261       -1.8821771831
 C         -6.1753814745        0.3208618811       -1.2337310442
 H         -6.8651736045       -0.1148497756       -1.9600980292
 H         -5.1680283641        0.2021510765       -1.6396479375
 C         -6.2910694520       -0.5012201853        0.0499344820
 H         -7.3279938410       -0.5007944924        0.3932204926
 H         -6.0125483211       -1.5332606474       -0.1782676988
 C         -5.3967057608       -0.0109606719        1.1961310279
 H         -5.3855596365       -0.7781207137        1.9743022874
 H         -5.7976213501        0.9101588944        1.6184272758
 H         -5.5971591353        3.7567228290       -1.1732922736
 H         -4.6549862245        2.4966079706       -1.9713635878
 H         -4.9646244773        2.7515224547        1.0519596991
 H         -3.6379849576        3.4581123740        0.1129022331
 O         -2.2926215370        1.5469805529       -0.2316215622
 C         -1.3828683035        0.4997227544       -0.2614286056
 O         -0.2756533132        0.7976348162       -0.7470635088
 O         -3.4454352658       -2.0561857485        1.2676611551
 C         -0.7915354608       -1.8869731714        0.2199964931
 C          0.4635615663       -1.5140723245        0.9679082303
 C          0.3502119211       -1.0717952594        2.2846358281
 C          1.4692447317       -0.7198778901        3.0127629057
 C          2.7279357408       -0.7925500179        2.4402401287
 C          2.8531174213       -1.2364462313        1.1306163433
 C          1.7266203158       -1.6046636902        0.4055284939
 H          1.8586693461       -1.9394942957       -0.6091984337
 N          4.1203807041       -1.3439204767        0.5246613852
 S          4.4287443726       -0.4888502834       -0.8826463952
 O          3.5272347751       -0.9109551998       -1.9217318590
 O          5.8383650133       -0.6979235873       -1.1351658347
 C          4.1553407656        1.2169480917       -0.4373897080
 C          5.2505104855        1.9884175543       -0.0967658707
 C          5.0510765745        3.2955351628        0.3150211646
 C          3.7629870504        3.8047582454        0.3890451191
 C          2.6760578047        3.0154116902        0.0481143275
 C          2.8665692919        1.7065581079       -0.3695232630
 H          2.0269171368        1.0854660995       -0.6396556180
 H          1.6696426027        3.3996884734        0.1021448495
 H          3.6043187761        4.8216036680        0.7124331587
 H          5.8961876215        3.9111548861        0.5780622433
 H          6.2330952617        1.5513741365       -0.1737886743
 H          4.8880126516       -1.2037614950        1.1673159998
 H          3.6048984474       -0.5123611800        3.0040464256
 H          1.3629251648       -0.3796332476        4.0316943999
 H         -0.6343595455       -1.0080297526        2.7279823847
 H         -1.2838602345       -2.7067776177        0.7644258774
 C         -0.5436186111       -2.3343258309       -1.2050920992
 C         -0.1490839212       -3.7513991733       -1.4905819257
 C         -1.5203605344       -3.2675282537       -1.8527613527
 H         -1.7595527271       -3.1225655353       -2.8957157091
 H         -2.3558906190       -3.6024579299       -1.2552898702
 H          0.5585512292       -3.9368938874       -2.2847867790
 H         -0.0538064423       -4.4223937726       -0.6502728581
 H         -0.1151750232       -1.5533499617       -1.8245447564
