  62
        -98.94488447
 C         -1.9221729836       -0.1738248747        0.0467090216
 C         -2.9396021344       -1.0490706753        0.4968479512
 C         -4.2511781282       -0.4368112444        0.7447471604
 C         -4.4033452032        0.8873933828        0.5599261149
 C         -5.6953441387        1.6322871777        0.7282862954
 C         -6.4749354987        1.6988077229       -0.5924245451
 C         -6.6154527243        0.3486125475       -1.2954030445
 H         -7.2082539234        0.5123252872       -2.1980015613
 H         -5.6278183166        0.0102337106       -1.6171863596
 C         -7.2732813489       -0.7455881924       -0.4430294895
 H         -7.8092930275       -0.2925703285        0.3917522147
 H         -8.0102578417       -1.2699195315       -1.0549757886
 C         -6.3043926925       -1.8024544787        0.0904067060
 H         -5.6986011717       -2.1916870260       -0.7317808877
 H         -6.8931838276       -2.6345611762        0.4854948448
 C         -5.3606772511       -1.3389809620        1.2072999389
 H         -5.9379187618       -0.8639779281        2.0030590000
 H         -4.8723322789       -2.2269303478        1.6192707652
 H         -7.4653119172        2.1098437930       -0.3882837435
 H         -5.9552304741        2.3833886303       -1.2668452203
 H         -6.2953958527        1.1411148756        1.4918443575
 H         -5.4661268615        2.6476782651        1.0559686291
 O         -3.3963740425        1.7001745979        0.1495100438
 C         -2.1341710415        1.1936907584       -0.1274116401
 O         -1.3118809615        2.0478122224       -0.5085991499
 H          1.7371086494        0.6772526862       -0.9516402338
 C          1.5769234136        0.6096057932        0.1106722741
 C          0.4814428766       -0.0656531372        0.6231902667
 C          0.3094503712       -0.1067693972        2.0055936573
 C          1.2000820094        0.5273441694        2.8481752344
 C          2.2898561740        1.2074029921        2.3316353120
 C          2.4745472006        1.2508311653        0.9558065374
 N          3.5615155012        1.9504126760        0.4071745250
 S          4.4829654058        1.2758386290       -0.8122004353
 O          5.6812150037        2.0848412652       -0.8490189916
 O          3.7274985801        1.1991024801       -2.0356210843
 C          4.8725833487       -0.3581351931       -0.2137276285
 C          5.9100171998       -0.4934207321        0.6885983095
 C          6.1812887462       -1.7450183676        1.2162800781
 C          5.4079575062       -2.8335246388        0.8415831949
 C          4.3705493072       -2.6808951399       -0.0649855515
 C          4.0966364787       -1.4318032900       -0.5999520443
 H          3.3014810891       -1.2753856582       -1.3097492061
 H          3.7713551312       -3.5286024007       -0.3569780790
 H          5.6159149136       -3.8073475373        1.2560326233
 H          6.9903355647       -1.8681534718        1.9180953036
 H          6.4927881472        0.3764333692        0.9451089139
 H          4.1512040531        2.4035217577        1.0898562438
 H          2.9828021937        1.7123099634        2.9874307968
 H          1.0483178359        0.4924824136        3.9164406835
 H         -0.5446300933       -0.6346906403        2.4075621769
 C         -0.5457275134       -0.7450133655       -0.2470932103
 H         -0.6033487237       -1.8029496542        0.0487887793
 C         -0.2459109649       -0.6713455591       -1.7286708710
 C          0.6690629509       -1.6752435808       -2.3613919768
 C         -0.8033411800       -1.7249542706       -2.6365041643
 H         -1.1592889460       -1.4289521422       -3.6119728450
 H         -1.3815227390       -2.5160717438       -2.1816118939
 H          1.0826962143       -2.4419040539       -1.7234550746
 H          1.3306970794       -1.3446018591       -3.1486760700
 H         -0.2265929164        0.3457100962       -2.1050239344
 O         -2.7569833206       -2.2815586774        0.6870445256
