  62
        -98.93663700
 C         -1.6471200617       -1.3570166263       -0.0706785205
 C         -1.8764458014       -0.2379476005       -0.9047914848
 C         -3.2825693934        0.1916718910       -1.0508614839
 C         -4.2509881754       -0.4968928110       -0.4237670742
 C         -5.7269262229       -0.2083130411       -0.4110827557
 C         -6.1061613479        0.6448935594        0.8108669344
 C         -5.9794589938        2.1539007353        0.6059229636
 H         -6.7715609570        2.4928946764       -0.0650192163
 H         -6.1453861406        2.6293957548        1.5753001095
 C         -4.6335845446        2.6274243347        0.0505029088
 H         -4.5238737922        3.6861754353        0.2937505400
 H         -3.8204026249        2.0972534844        0.5501602425
 C         -4.5137622314        2.4531332352       -1.4709674934
 H         -5.4976418274        2.2288340339       -1.8828140946
 H         -4.1991195877        3.3981933481       -1.9188795274
 C         -3.5057019367        1.3904198542       -1.9324208382
 H         -2.5160427376        1.8483604353       -2.0326373929
 H         -3.7878780046        1.0415716581       -2.9317306118
 H         -7.1406372305        0.4265107746        1.0834877480
 H         -5.4745357450        0.3324312276        1.6463740787
 H         -6.0346209972        0.2698183108       -1.3361452243
 H         -6.2300950147       -1.1741029475       -0.3296109580
 O         -3.9869367425       -1.5780105403        0.3604204887
 C         -2.6965082721       -2.0222970720        0.5685292095
 O         -2.6111580526       -3.0116857635        1.3236049732
 O         -0.9667191865        0.3849516359       -1.5123754833
 C         -0.2513958221       -1.8992986680        0.2017001353
 C          0.4514403302       -0.9926913721        1.1835596492
 C          0.3634748352       -1.2791337534        2.5435206889
 C          0.9633853708       -0.4584027842        3.4795054819
 C          1.6752904914        0.6568338774        3.0763674026
 C          1.7604576577        0.9591651403        1.7214880615
 C          1.1515027445        0.1366834642        0.7817975576
 H          1.1889916921        0.4148773856       -0.2586997678
 N          2.4624326524        2.0944564039        1.3031011485
 S          3.2124085804        2.1875654159       -0.1809370378
 O          4.2513078219        3.1781586341        0.0220841879
 O          2.2659521170        2.4890467471       -1.2235329737
 C          3.9729614592        0.6001099057       -0.4721624546
 C          3.8551449610        0.0224974506       -1.7193792281
 C          4.5070507916       -1.1747896345       -1.9692412667
 C          5.2538013420       -1.7761738086       -0.9679661568
 C          5.3561409435       -1.1867302527        0.2824431071
 C          4.7170867292        0.0165107895        0.5338028024
 H          4.7928848040        0.5033903644        1.4921554005
 H          5.9351149304       -1.6582670062        1.0599466741
 H          5.7575278958       -2.7096583084       -1.1637327673
 H          4.4317258196       -1.6299701050       -2.9444262073
 H          3.2533753684        0.5184846594       -2.4645908187
 H          2.9721473863        2.5837844541        2.0229066971
 H          2.1498757305        1.2989580943        3.8025880727
 H          0.8837137322       -0.6919822107        4.5303040569
 H         -0.1995009370       -2.1467533468        2.8571784472
 H         -0.4116974047       -2.8646424814        0.7009193796
 C          0.5465589275       -2.1495457378       -1.0599607581
 C          1.6553968786       -3.1557503426       -1.0196904877
 C          0.3900367763       -3.4647699855       -1.7604450614
 H          0.4106828934       -3.4777099501       -2.8398136086
 H         -0.2947757966       -4.1812787693       -1.3298898774
 H          2.5502954404       -2.9578309112       -1.5878844395
 H          1.8301863908       -3.6651892075       -0.0841957975
 H          0.6752850319       -1.2726232117       -1.6803587720
