  62
        -98.94873772
 C         -2.0575760751       -1.0121873214       -0.1713638815
 C         -1.1981937812       -1.7645097578       -1.0052236486
 C         -0.2820177424       -2.6816853208       -0.3218201404
 C         -0.2962011252       -2.7570884721        1.0216486160
 C          0.5881301797       -3.6354659730        1.8646912730
 C          1.9724022035       -3.0289206722        2.1350552513
 C          2.9374840127       -3.0616577562        0.9488567895
 H          3.9321199117       -2.8387942724        1.3399167231
 H          2.9672151879       -4.0688741384        0.5311741754
 C          2.6070943922       -2.0475396728       -0.1549740749
 H          1.9393655329       -1.2829213511        0.2501038190
 H          3.5217978477       -1.5361849678       -0.4647771785
 C          1.9799966203       -2.6511287425       -1.4115127149
 H          2.7042068742       -3.3042321085       -1.9034766872
 H          1.7408840357       -1.8339098439       -2.0963649242
 C          0.6959561771       -3.4510413508       -1.1589297649
 H          0.2207906811       -3.6476978755       -2.1234257636
 H          0.9325503941       -4.4032050137       -0.6846303033
 H          1.8391400839       -1.9944334771        2.4635379764
 H          2.4199587996       -3.5884984249        2.9601463128
 H          0.0759873165       -3.7665394646        2.8204013745
 H          0.7002354904       -4.6120677693        1.3921794257
 O         -1.1547480977       -2.0353597468        1.7885918166
 C         -2.0190271180       -1.1137499844        1.2198270129
 O         -2.7066755915       -0.4764471083        2.0420964718
 O         -1.1915661830       -1.6650645956       -2.2632878837
 C         -2.9578176646        0.0337008260       -0.8031556932
 C         -2.5310093227        1.4060770965       -0.3388037368
 C         -3.4210733128        2.4278664936       -0.0372829350
 C         -2.9513715505        3.6504629841        0.4128753286
 C         -1.5981779552        3.8719984191        0.5872313426
 C         -0.6964274961        2.8593567210        0.2742880902
 C         -1.1696376705        1.6540859254       -0.2134908331
 H         -0.4731410670        0.8621587064       -0.4435140845
 N          0.6859651714        3.0558041569        0.4258817026
 S          1.7191444742        1.8711674540        1.0152552450
 O          1.0055149829        0.6881288238        1.4298422327
 O          2.5189739618        2.5233643944        2.0327554349
 C          2.7800457486        1.4932158641       -0.3686031780
 C          2.2386074604        1.2677456947       -1.6181852778
 C          3.0837847645        0.9377892272       -2.6662891060
 C          4.4496944333        0.8384741953       -2.4514416423
 C          4.9802000314        1.0728791127       -1.1923884072
 C          4.1396639048        1.4021017814       -0.1409026454
 H          4.5077920962        1.5948996783        0.8535170008
 H          6.0426282547        0.9976401086       -1.0253095333
 H          5.1015533376        0.5776752408       -3.2700363975
 H          2.6684105492        0.7564725838       -3.6448860602
 H          1.1733728748        1.3467935203       -1.7646905160
 H          0.9319404744        3.9489813258        0.8273725238
 H         -1.2376574436        4.8164056106        0.9662505196
 H         -3.6520907104        4.4366199882        0.6503510802
 H         -4.4813068363        2.2642278105       -0.1407589740
 H         -2.7728197801       -0.0372750565       -1.8862499117
 C         -4.4179896228       -0.2650471837       -0.5386247570
 C         -5.4650178738        0.1264658709       -1.5373786211
 C         -5.1008745859       -1.3159450364       -1.3602823283
 H         -5.8055127763       -1.9732074087       -0.8734961603
 H         -4.5176379968       -1.7963214934       -2.1323132880
 H         -6.4254848862        0.4588355007       -1.1732560421
 H         -5.1369886582        0.6229252641       -2.4380831743
 H         -4.6666338940       -0.2133257951        0.5154402135
