  62
        -98.94024086
 C         -2.4469374021       -0.9290810899       -0.0184281100
 C         -2.6444401912        0.4470503018        0.2490112440
 C         -4.0143299412        0.8322217173        0.6122529838
 C         -4.9740742148       -0.1068707053        0.6982078572
 C         -6.4100146659        0.1264542160        1.0829030939
 C         -7.3026512374        0.5796787718       -0.0804619546
 C         -7.0780917141        2.0174165429       -0.5502777839
 H         -7.9083315950        2.2714006072       -1.2122290845
 H         -7.1269061872        2.6902918445        0.3063368949
 C         -5.7601339342        2.2379887958       -1.3058555948
 H         -5.3610073458        1.2748184973       -1.6323207676
 H         -5.9504641910        2.8264867149       -2.2062684026
 C         -4.6846595327        2.9718848042       -0.5045895639
 H         -3.7842827096        3.0391682214       -1.1207562970
 H         -5.0197129384        3.9882754237       -0.2860474021
 C         -4.3038740507        2.2887819513        0.8154808259
 H         -5.0975544344        2.4213464435        1.5503756450
 H         -3.3919014963        2.7570086597        1.1939838049
 H         -7.1572732925       -0.1048039259       -0.9193295520
 H         -8.3398210388        0.4857253159        0.2493862881
 H         -6.4587072034        0.8603047529        1.8877599784
 H         -6.7896640500       -0.8267606009        1.4568594662
 O         -4.7349534548       -1.4242239011        0.4580929727
 C         -3.4772312030       -1.8637745559        0.0789003651
 O         -3.4025154866       -3.0923016606       -0.1286921336
 O         -1.7287536178        1.3086279603        0.1928476453
 C         -1.0741400648       -1.4293178683       -0.4272557659
 C         -0.0493684360       -1.0757223304        0.6233835982
 C         -0.3263534672       -1.3600574541        1.9586168847
 C          0.5915255270       -1.0677979505        2.9481779235
 C          1.8128273831       -0.5009039567        2.6278641832
 C          2.0998977684       -0.2146360393        1.2991208179
 C          1.1716393019       -0.5027158279        0.3075082071
 H          1.4237310872       -0.2705936503       -0.7133843786
 N          3.3199405573        0.3823172209        0.9432115802
 S          4.0333391257       -0.0471650267       -0.5246787964
 O          3.4468351481        0.7363863940       -1.5823858452
 O          3.9930573350       -1.4823302122       -0.6944013565
 C          5.7079553913        0.4944792003       -0.2347422957
 C          6.6599219435       -0.4244525771        0.1647026944
 C          7.9508378436        0.0136124442        0.4155688954
 C          8.2654010545        1.3559626797        0.2666104012
 C          7.2993245092        2.2664938579       -0.1356150705
 C          6.0070828210        1.8351269949       -0.3892869727
 H          5.2258119292        2.5037694859       -0.7115485693
 H          7.5483180119        3.3088320718       -0.2530826943
 H          9.2705767036        1.6944455098        0.4623482428
 H          8.7048852319       -0.6920314585        0.7250364602
 H          6.3713899168       -1.4590039255        0.2590616252
 H          3.9911693373        0.3877891108        1.6988713772
 H          2.5320119175       -0.2750543193        3.4005165188
 H          0.3587226627       -1.2908486920        3.9787240197
 H         -1.2773782521       -1.8118775178        2.2082981404
 H         -1.1478590716       -2.5266361710       -0.4705212376
 C         -0.7214584904       -0.9133822098       -1.8068359696
 C          0.2180355445       -1.6838967867       -2.6833658969
 C         -1.2428880459       -1.6321354130       -3.0131093256
 H         -1.5595736715       -1.0490139288       -3.8647894483
 H         -1.8374261326       -2.5181231265       -2.8427240713
 H          0.9116243549       -1.1339035900       -3.3023988482
 H          0.6221728534       -2.6063305204       -2.2933813494
 H         -0.6804005197        0.1697367751       -1.8481354970
