  62
        -98.94199902
 C         -1.2662659827       -1.1426251830        0.7182986246
 C         -1.4140065118       -0.3941920462       -0.4773284707
 C         -2.2911496221        0.7833624813       -0.3778666255
 C         -2.7417206478        1.1871802171        0.8218883912
 C         -3.6162089386        2.3820979737        1.0864468069
 C         -5.1153495742        2.0981706530        0.9182534479
 C         -5.5832715247        1.9147297349       -0.5261741182
 H         -6.6748842854        1.9333667472       -0.5134359979
 H         -5.2513225696        2.7632763493       -1.1252246380
 C         -5.1201495901        0.6057669545       -1.1814395873
 H         -5.9623325153        0.1391191960       -1.6973684721
 H         -4.7945609325       -0.0938228960       -0.4079344430
 C         -3.9973349513        0.7720602139       -2.2058228104
 H         -4.3591133849        1.3617854407       -3.0509872408
 H         -3.7277743251       -0.2189276922       -2.5803459407
 C         -2.7284840994        1.4369900434       -1.6537857467
 H         -1.9285968412        1.3083799891       -2.3856704986
 H         -2.9057183022        2.5011754624       -1.5018379999
 H         -5.6587877611        2.9419745660        1.3497818474
 H         -5.3699419696        1.2084919710        1.4993326993
 H         -3.3257855087        3.2052483532        0.4335840367
 H         -3.4365023832        2.6777571765        2.1222759474
 O         -2.4219021041        0.5394146971        1.9747413726
 C         -1.7315724948       -0.6608113172        1.9446191245
 O         -1.5761973206       -1.1862673956        3.0666539888
 O         -0.8700977291       -0.6817355177       -1.5712500697
 C         -0.5176015445       -2.4647452657        0.7567704498
 C          0.8420342783       -2.2951991022        0.1290952916
 C          1.1999279461       -2.8391915264       -1.0964576710
 C          2.4579426805       -2.6046860074       -1.6245243081
 C          3.3845865289       -1.8374118463       -0.9416097803
 C          3.0358014673       -1.2929018505        0.2873660852
 C          1.7729784846       -1.5204155948        0.8102757892
 H          1.4965668499       -1.0857125580        1.7637518341
 N          3.9743600275       -0.5058097960        0.9931699169
 S          4.4208154659        0.9306827949        0.2560243497
 O          5.1889615054        0.6321393919       -0.9247800479
 O          5.0925365121        1.6979350603        1.2803196222
 C          2.8792200931        1.7077644911       -0.1872513048
 C          2.3217314704        1.4519606324       -1.4233363854
 C          1.0933720232        2.0132473017       -1.7309596331
 C          0.4460316387        2.8098607567       -0.7999735702
 C          1.0150877601        3.0503156893        0.4409924276
 C          2.2427029164        2.4912227659        0.7547033409
 H          2.7242166321        2.6611573028        1.7048161607
 H          0.5045731056        3.6672979132        1.1633297281
 H         -0.5093917671        3.2459945838       -1.0426274479
 H          0.6424200318        1.8164190423       -2.6897998595
 H          2.8549552135        0.8277146532       -2.1212795762
 H          3.6842316636       -0.3088560716        1.9411801429
 H          4.3638822563       -1.6363059452       -1.3450658724
 H          2.7209452879       -3.0247841244       -2.5834594394
 H          0.4824018885       -3.4227153817       -1.6493772443
 H         -0.3653427159       -2.6700249647        1.8289229967
 C         -1.2975872434       -3.6470340592        0.2017248503
 C         -2.7798317460       -3.7409589820        0.4072770862
 C         -2.2248208320       -3.5479677329       -0.9701999539
 H         -2.2649629758       -4.3807962105       -1.6572023906
 H         -2.3414125557       -2.5873625749       -1.4443273714
 H         -3.2068103307       -4.6982748829        0.6657146825
 H         -3.2674510463       -2.9025056431        0.8842946904
 H         -0.7394832618       -4.5733484469        0.3003467337
