  62
        -98.93928676
 C          2.0034229983        0.9021074615        0.0294356682
 C          2.3292995078       -0.0666361834        1.0034211339
 C          2.4204124952       -1.4620036438        0.5430368212
 C          2.1814707145       -1.7459105504       -0.7511155962
 C          2.1343500387       -3.0698198289       -1.4860626209
 C          2.7262658687       -4.3326584392       -0.8648943946
 C          4.2452240056       -4.3139362570       -0.6986501016
 H          4.5404301958       -5.2224979263       -0.1694644817
 H          4.7036969365       -4.3408983092       -1.6901786906
 C          4.8115670985       -3.1033115385        0.0388389181
 H          4.6169004067       -2.1976053540       -0.5391027625
 H          5.8967533246       -3.2235401849        0.0948123647
 C          4.2926166592       -2.9033832719        1.4615709403
 H          4.8968352304       -2.1187561764        1.9244427250
 H          4.4350138147       -3.8194064328        2.0378945802
 C          2.8181256468       -2.4762835598        1.5765537588
 H          2.1496291155       -3.3339835233        1.5455923815
 H          2.6791916081       -1.9921149705        2.5478415103
 H          2.4777876185       -5.1553715310       -1.5409385793
 H          2.2416939610       -4.5471753847        0.0831452131
 H          2.6119824458       -2.8886340764       -2.4543453174
 H          1.0727845289       -3.2475486265       -1.6941271129
 O          1.8699678840       -0.7736733779       -1.6578913173
 C          1.7558037393        0.5570013058       -1.2977439884
 O          1.4540291972        1.3205887965       -2.2355508135
 O          2.5274157514        0.2201593123        2.2168531282
 C          1.8299814834        2.3499153307        0.4485008621
 C          0.4238549457        2.7980046732        0.1316005700
 C          0.1202816858        4.0326590660       -0.4270755473
 C         -1.1907217436        4.3605632872       -0.7277926668
 C         -2.2183445054        3.4671137388       -0.4909181278
 C         -1.9267490980        2.2367349582        0.0885851260
 C         -0.6183100537        1.9231922459        0.4127827675
 H         -0.4046848609        0.9626063044        0.8603729622
 N         -2.9477101196        1.3105050735        0.3696189595
 S         -2.5907825407       -0.3351396751        0.2367270376
 O         -1.9549036473       -0.7724311667        1.4554085878
 O         -1.8805468569       -0.6063716867       -0.9932211157
 C         -4.2441583932       -1.0005910569        0.1588166301
 C         -4.7888928382       -1.3287040094       -1.0681080053
 C         -6.0884837264       -1.8087379320       -1.1180324834
 C         -6.8182016260       -1.9479634730        0.0529403085
 C         -6.2575791046       -1.6152608978        1.2773622995
 C         -4.9584361536       -1.1362946461        1.3344417630
 H         -4.4764342301       -0.8727274328        2.2613580433
 H         -6.8267904030       -1.7273444710        2.1859196852
 H         -7.8293636552       -2.3207105767        0.0110447620
 H         -6.5250713155       -2.0711538342       -2.0681629388
 H         -4.1801077687       -1.2094136801       -1.9502567203
 H         -3.8146192998        1.5347070424       -0.1006536476
 H         -3.2363846341        3.7150745802       -0.7500359059
 H         -1.4123822470        5.3200303817       -1.1700104542
 H          0.9114409737        4.7324493123       -0.6410305219
 H          1.9582967230        2.3575973623        1.5418090717
 C          2.8988880086        3.2218726640       -0.1765296884
 C          3.3849452627        4.4508482447        0.5306206868
 C          4.2652752900        3.2420951689        0.4383173199
 H          5.1240552171        3.2743870313       -0.2151433260
 H          4.4148493437        2.6461042068        1.3268730422
 H          3.6438176099        5.3165932503       -0.0600538767
 H          2.9442636110        4.6831124046        1.4882833849
 H          2.8356095654        3.2401371439       -1.2589422617
