  62
        -98.93845533
 C          2.2502311141        1.1612849224        0.2747410848
 C          2.4468866508        0.0717005519       -0.6047159093
 C          3.3981051972       -0.9679368821       -0.1666950099
 C          4.0016045981       -0.8617584313        1.0309754599
 C          4.9651937489       -1.7839649663        1.7480580872
 C          5.7124946736       -2.8787505055        0.9902519058
 C          6.7165082719       -2.3727016250       -0.0443728150
 H          7.5407391943       -1.8830209603        0.4802016691
 H          7.1248407438       -3.2373253200       -0.5722612393
 C          6.1661664528       -1.3815396181       -1.0668908967
 H          6.9779169357       -1.1239895000       -1.7525377057
 H          5.8682517086       -0.4603788623       -0.5619281979
 C          4.9940476651       -1.8890445085       -1.9049711312
 H          4.8190600264       -1.1592093182       -2.6999070851
 H          5.2610054482       -2.8374704113       -2.3750413387
 C          3.6662722524       -2.0727920470       -1.1479094182
 H          2.8531674644       -2.0411371389       -1.8790133511
 H          3.6195151973       -3.0408399165       -0.6543603037
 H          5.0095977608       -3.5676910891        0.5309816157
 H          6.2692612217       -3.4484257716        1.7393407386
 H          5.6925115822       -1.1277533772        2.2363972459
 H          4.3859172295       -2.2536851867        2.5509426801
 O          3.7512097256        0.1887485429        1.8652366277
 C          2.8970581420        1.2149549290        1.5128050322
 O          2.7999081435        2.1133170727        2.3722252740
 H         -0.2071732176        0.5286120109       -1.3302347214
 C         -0.7502001476        1.0174266936       -0.5349557587
 C         -0.1076446587        1.9756071142        0.2359193268
 C         -0.8101224650        2.5713159632        1.2769682769
 C         -2.1230146404        2.2171430352        1.5337821508
 C         -2.7600632071        1.2619601140        0.7618424729
 C         -2.0620777559        0.6516437313       -0.2717684311
 N         -2.6946421174       -0.3303757746       -1.0565125264
 S         -3.4354470376       -1.6040199226       -0.2496839754
 O         -2.8186599105       -1.8505610370        1.0340500392
 O         -3.4335038311       -2.7056342796       -1.1876276779
 C         -5.1114526375       -1.0433015438       -0.0271962557
 C         -5.6662215441       -1.0077873310        1.2370104690
 C         -6.9759425093       -0.5768721637        1.3822351702
 C         -7.7038147693       -0.1924774722        0.2666214202
 C         -7.1327154136       -0.2364367726       -0.9966471286
 C         -5.8245623117       -0.6671088675       -1.1487420436
 H         -5.3449581551       -0.7205777356       -2.1117529811
 H         -7.7018884371        0.0629573795       -1.8618960463
 H         -8.7222714044        0.1431165915        0.3823995257
 H         -7.4213943757       -0.5425684575        2.3635072831
 H         -5.0601270429       -1.3115718395        2.0758122226
 H         -2.1037376425       -0.6816608357       -1.7973922595
 H         -3.7805257938        0.9776742785        0.9607442092
 H         -2.6560775925        2.6885518549        2.3453656429
 H         -0.3122326577        3.3024538288        1.8973943408
 C          1.3339807882        2.3378459157       -0.0307955486
 H          1.6176361112        3.1215230785        0.6842906740
 C          1.5187898971        2.8821794724       -1.4339954981
 C          1.0950993841        4.2883080760       -1.7283509924
 C          2.5517066353        3.9390590614       -1.6774871338
 H          3.1107616934        3.9094487990       -2.6007118574
 H          3.1291236557        4.2779397521       -0.8293369609
 H          0.6509673069        4.5014362014       -2.6884182516
 H          0.6851033036        4.8672548067       -0.9147326913
 H          1.3785945754        2.1397826711       -2.2081119412
 O          1.8656508095       -0.0596677753       -1.7163880524
