  62
        -98.93715224
 C         -1.8096409396       -1.1145439897        0.2753228697
 C         -2.4057975898       -0.0792901196        1.0363770594
 C         -3.8244963698        0.2294387502        0.7722836191
 C         -4.4764453696       -0.4866065901       -0.1623840708
 C         -5.9003166396       -0.3430638004       -0.6313937610
 C         -6.1036881596        0.8692402194       -1.5530003213
 C         -5.4396536398        2.1569801796       -1.0734837915
 H         -4.3655945298        1.9907027697       -0.9710903413
 H         -5.5771195598        2.9115364694       -1.8525659917
 C         -5.9921266900        2.7267832598        0.2310113883
 H         -5.5072670402        3.6930577899        0.3926352482
 H         -7.0632724400        2.9082270797        0.1181366982
 C         -5.7711660501        1.8729535801        1.4820664485
 H         -6.4835779200        1.0538440100        1.5322804786
 H         -5.9694821202        2.5097390203        2.3491971584
 C         -4.3506271500        1.3420264803        1.6467200188
 H         -3.6413990001        2.1718099104        1.5442690887
 H         -4.2272888401        0.9874117306        2.6773096489
 H         -5.6858642495        0.6239478592       -2.5324352912
 H         -7.1757406596        1.0333187892       -1.6747275314
 H         -6.1359323394       -1.2496724105       -1.1931456708
 H         -6.5722866097       -0.2975292803        0.2204240889
 O         -3.8647389794       -1.4785073002       -0.8672429105
 C         -2.5373981394       -1.8210113400       -0.6820773503
 O         -2.1564900992       -2.7544629601       -1.4135638700
 H          1.0903165502        0.8546056008        0.6286554696
 C          1.1889380403        0.3505852506       -0.3215962403
 C          0.5185353905       -0.8442678796       -0.5482065001
 C          0.6450811607       -1.4559613098       -1.7916380100
 C          1.4185650208       -0.8769513800       -2.7805571800
 C          2.0951706106        0.3074493902       -2.5469470702
 C          1.9751223404        0.9274959904       -1.3096209304
 N          2.6530810702        2.1312166106       -1.0394114806
 S          3.5998473000        2.2041678510        0.3399634295
 O          2.7712897999        2.3055939812        1.5130978294
 O          4.5095715599        3.3035771711        0.1025261694
 C          4.4892351602        0.6584594111        0.3330048700
 C          5.5485184303        0.5208865710       -0.5429151999
 C          6.2045694105       -0.6967359389       -0.6164780495
 C          5.7866157605       -1.7535077488        0.1780814807
 C          4.7233889504       -1.5989615387        1.0538064705
 C          4.0639410803       -0.3823390688        1.1326908602
 H          3.2340480602       -0.2188894387        1.8014120300
 H          4.4026794704       -2.4221612886        1.6722262107
 H          6.2933717306       -2.7035982187        0.1177911809
 H          7.0350641906       -0.8192807790       -1.2927928694
 H          5.8489558003        1.3704228709       -1.1346084200
 H          3.1636681302        2.4972649205       -1.8307225506
 H          2.7024965606        0.7555727601       -3.3187548302
 H          1.5011533709       -1.3575691802       -3.7434825099
 H          0.1049204808       -2.3679690499       -1.9878841698
 C         -0.3458919396       -1.4244996794        0.5455918199
 H         -0.1105998997       -0.8861101792        1.4740150998
 C         -0.0854947694       -2.9007893594        0.7662636703
 C          1.1597091206       -3.3157626790        1.4882163105
 C         -0.1751365595       -3.4566395491        2.1545217304
 H         -0.5874067794       -4.4456835691        2.2868710505
 H         -0.4232352597       -2.7714868389        2.9525156702
 H          1.6702059607       -4.2091984691        1.1640933208
 H          1.8138227204       -2.5304251989        1.8350431104
 H         -0.4389526792       -3.5300769296       -0.0394559296
 O         -1.7791951600        0.5705262707        1.9179192393
