  62
        -98.93453579
 C         -2.3427440196       -0.7779558550       -0.1150007543
 C         -3.5404444802       -1.1427698753        0.5410411471
 C         -4.7859053114       -0.5749675947       -0.0036054297
 C         -4.7186013329        0.2331737132       -1.0760803124
 C         -5.8524911173        0.9548091008       -1.7506671679
 C         -6.0050608674        2.3767475374       -1.1840816875
 C         -6.8950102085        2.4851910305        0.0535526657
 H         -6.8115776733        3.5093138747        0.4243958844
 H         -7.9353405031        2.3258746843       -0.2375544459
 C         -6.5531040257        1.5208150371        1.1922908913
 H         -5.4705761173        1.4789379881        1.3260419312
 H         -6.9767931155        1.9261140177        2.1132673865
 C         -7.1075257994        0.1055941545        0.9711915806
 H         -7.6613187937       -0.2084714550        1.8583655782
 H         -7.8249462190        0.1282766151        0.1512067721
 C         -6.0517840435       -0.9773040475        0.7032808812
 H         -5.7136392951       -1.3993460101        1.6549466595
 H         -6.5156885733       -1.7981651104        0.1463559715
 H         -5.0051412788        2.7536887892       -0.9539368865
 H         -6.4255660175        3.0196432844       -1.9599541345
 H         -5.5879184845        1.0283684094       -2.8074931880
 H         -6.7768718455        0.3924945643       -1.6588060989
 O         -3.5417473250        0.5548308029       -1.6816754891
 C         -2.3296406616        0.0704737389       -1.2214310884
 O         -1.3400736097        0.4589260158       -1.8704653577
 O         -3.5684350041       -1.9021117355        1.5477861080
 C         -1.0249066415       -1.3249779944        0.4012478412
 C         -0.1032756521       -0.1929420278        0.7820579707
 C         -0.5717155924        0.7883212054        1.6532903069
 C          0.2371354850        1.8406976022        2.0336626257
 C          1.5361612164        1.9317582202        1.5646264111
 C          2.0131248186        0.9596844765        0.6943259090
 C          1.1953780762       -0.0951266193        0.3106900261
 H          1.5939758826       -0.8337485652       -0.3639513912
 N          3.3169074934        1.0396186922        0.1796354196
 S          4.1735692070       -0.3896073981       -0.0869281091
 O          3.7963561849       -0.9383543712       -1.3647726155
 O          4.0357251719       -1.2686713425        1.0526317707
 C          5.8358685624        0.2510949816       -0.1753444219
 C          6.6405544559        0.2098728016        0.9476708214
 C          7.9195400025        0.7392939126        0.8758443550
 C          8.3687224746        1.3002085431       -0.3102218490
 C          7.5498514814        1.3335824761       -1.4293373927
 C          6.2702327282        0.8055249702       -1.3646331429
 H          5.6012564111        0.8015428282       -2.2095411811
 H          7.9034497798        1.7677775298       -2.3505642131
 H          9.3644912644        1.7110866100       -0.3640279416
 H          8.5595626593        0.7121128150        1.7429847070
 H          6.2517947902       -0.2439469263        1.8450624611
 H          3.8835827022        1.7326512407        0.6490247684
 H          2.1704462376        2.7527358670        1.8626764435
 H         -0.1423958603        2.5938100710        2.7079728627
 H         -1.5843256303        0.7121538820        2.0263277269
 H         -1.2761606227       -1.8816215309        1.3169455462
 C         -0.4211012782       -2.2874484273       -0.5989007643
 C          0.5212708118       -3.3574852714       -0.1378123670
 C         -0.8589660876       -3.7200750139       -0.5948953437
 H         -0.9731880517       -4.2268081296       -1.5413369006
 H         -1.5834309537       -4.0146116120        0.1502986658
 H          1.3620578454       -3.6079615610       -0.7678492912
 H          0.7407122842       -3.4077976353        0.9182998262
 H         -0.2317069701       -1.8247931913       -1.5618599026
