  62
        -98.93476154
 C          2.2778684704        0.4125638103        0.1752365990
 C          3.5122766605        0.8928190710        0.6664660681
 C          4.6885044404        0.0197350306        0.4877917994
 C          4.5221400202       -1.1705263804       -0.1188954187
 C          5.5695766701       -2.2009977010       -0.4475879871
 C          6.4304979000       -1.8051197931       -1.6581702079
 C          6.8955772001       -0.3512637331       -1.6692407303
 H          7.3980657500       -0.1711743147       -2.6232997207
 H          6.0231838402        0.3039267870       -1.6348512113
 C          7.8636917503        0.0312149186       -0.5522466010
 H          8.1787887203        1.0616365783       -0.7354697928
 H          8.7507662302       -0.6030430916       -0.6143950201
 C          7.3078169204       -0.0484885890        0.8710389892
 H          8.0088940006        0.4795061020        1.5240207482
 H          7.2737008004       -1.0762053285        1.2222793408
 C          5.9496901305        0.6190881314        1.0626022582
 H          5.7611188907        0.7230507332        2.1380593581
 H          5.9966939006        1.6448946708        0.6798362066
 H          7.2968597199       -2.4675909832       -1.6962160669
 H          5.8381313698       -1.9713716145       -2.5612925775
 H          6.1897766102       -2.3935559997        0.4227500331
 H          5.0362250299       -3.1235068314       -0.6872550655
 O          3.3071998401       -1.5947722310       -0.5742831478
 C          2.1620735802       -0.8319089407       -0.4414250589
 O          1.1307020201       -1.3620024713       -0.8991042579
 O          3.6350918807        2.0111614919        1.2367199163
 C          1.0392964805        1.2743077907        0.3269447678
 C         -0.0282142695        0.5410026721        1.1010053791
 C          0.3217723606       -0.1261310261        2.2723723802
 C         -0.6272887994       -0.8117433148        3.0044244814
 C         -1.9464978494       -0.8431496853        2.5880805416
 C         -2.3122362295       -0.1619538172        1.4333204305
 C         -1.3552559295        0.5275930115        0.7008283193
 H         -1.6628247296        1.0399318001       -0.1944913415
 N         -3.6596696195       -0.1286161177        1.0329427507
 S         -4.0781652397       -0.0800546003       -0.6001665794
 O         -3.5080994699       -1.2046643115       -1.3082765476
 O         -3.7793575797        1.2282385588       -1.1246721415
 C         -5.8456312797       -0.2717790199       -0.4533657488
 C         -6.5908788396        0.8175198008       -0.0424880505
 C         -7.9614976796        0.6752526412        0.1023885399
 C         -8.5614842797       -0.5465806992       -0.1649138580
 C         -7.8012025799       -1.6298580399       -0.5786540664
 C         -6.4290784499       -1.4947503403       -0.7236385368
 H         -5.7984207000       -2.3066557409       -1.0489991355
 H         -8.2705164200       -2.5774535802       -0.7888379048
 H         -9.6287341497       -0.6544664889       -0.0524335977
 H         -8.5563792695        1.5156974118        0.4216383686
 H         -6.0822957095        1.7487354911        0.1444787479
 H         -4.2210628996       -0.8165065569        1.5172552919
 H         -2.6866354594       -1.3864007843        3.1557000326
 H         -0.3376836193       -1.3329526633        3.9046745322
 H          1.3540744707       -0.1074564356        2.5951385900
 H          1.3585359407        2.1434699716        0.9225774163
 C          0.5694065404        1.7611711485       -1.0278489030
 C         -0.1390930495        3.0753223284       -1.1565074250
 C          1.2615956104        2.9261271374       -1.6671381849
 H          1.4254711703        2.9062369057       -2.7341609149
 H          2.0607726605        3.3922812982       -1.1093824658
 H         -0.9475403096        3.1543059973       -1.8681388450
 H         -0.2905882993        3.6493324199       -0.2547987659
 H          0.2559429602        0.9483593175       -1.6755729616
