  62
        -98.95138330
 C         -1.8150449220       -1.2669653889       -0.2871595179
 C         -2.9102379721       -0.5930634841        0.3002296143
 C         -3.2376444973        0.7149621166       -0.2754953879
 C         -2.5188562968        1.1882134176       -1.3100271934
 C         -2.7171015295        2.5146304832       -1.9909443798
 C         -2.0103799306        3.6726183608       -1.2724446643
 C         -2.6839224407        4.1391046912        0.0188670688
 H         -2.2338311245        5.0973287576        0.2863033062
 H         -3.7450485227        4.3147727881       -0.1643274513
 C         -2.5128051777        3.1728754460        1.1994515472
 H         -1.6797399289        2.4953847708        0.9936391179
 H         -2.2403502130        3.7383390030        2.0944323186
 C         -3.7614129568        2.3590189177        1.5424424761
 H         -4.5489811192        3.0303230371        1.8935632801
 H         -3.5097836157        1.6785208725        2.3602732927
 C         -4.3161464369        1.5216441290        0.3827118656
 H         -5.0532579349        0.8235930013        0.7880511333
 H         -4.8076440220        2.1668234254       -0.3451178152
 H         -1.9714092172        4.5165281570       -1.9655854825
 H         -0.9835083349        3.3698342439       -1.0502546128
 H         -3.7817639091        2.7321863064       -2.0818253126
 H         -2.2924878571        2.4186643266       -2.9925290060
 O         -1.5056648926        0.4870043081       -1.8798375732
 C         -1.0948180093       -0.7240085070       -1.3504414078
 O         -0.1021107383       -1.2231984779       -1.9170785888
 O         -3.5738725731       -1.0587160483        1.2673437875
 C         -1.3296042577       -2.5691500223        0.3222514048
 C          0.1073285726       -2.4142954917        0.7590387726
 C          1.0624830964       -3.4139120434        0.6211429233
 C          2.3733391861       -3.1924154030        1.0085244159
 C          2.7663928903       -1.9657208158        1.5119899894
 C          1.8155291768       -0.9636804353        1.6631691801
 C          0.4961659843       -1.2054096026        1.3221280015
 H         -0.2276292546       -0.4143428654        1.4541385849
 N          2.1561411250        0.3262646833        2.1276928719
 S          2.0200194478        1.5534874261        0.9878264519
 O          2.4906058391        2.7466133670        1.6593391472
 O          0.6784397588        1.6010514399        0.4706503358
 C          3.1920905845        1.0850782333       -0.2726840378
 C          4.4727980324        1.5997363963       -0.1957791809
 C          5.4230510372        1.1787293914       -1.1110538315
 C          5.0808872695        0.2435225452       -2.0766957132
 C          3.7930029094       -0.2650063216       -2.1373888515
 C          2.8336838461        0.1546991379       -1.2272676050
 H          1.8242730384       -0.2263934275       -1.2640745758
 H          3.5182327625       -0.9915063836       -2.8852521252
 H          5.8206707763       -0.0903140039       -2.7871399514
 H          6.4242364257        1.5761999035       -1.0667265301
 H          4.6901502594        2.3260429008        0.5709434990
 H          3.0755142920        0.3753541491        2.5466578765
 H          3.7953887291       -1.7810044791        1.7818369929
 H          3.1034548002       -3.9788915305        0.8942666879
 H          0.7813880831       -4.3660450038        0.2013938670
 H         -1.9525379831       -2.7272757481        1.2158082592
 C         -1.5433473722       -3.7251344506       -0.6330268918
 C         -1.8297612163       -5.1004598553       -0.1101207181
 C         -2.9178144411       -4.3067412796       -0.7665033490
 H         -3.2589217821       -4.6048244267       -1.7464636819
 H         -3.6940452334       -3.8858933686       -0.1440716630
 H         -1.4258036694       -5.9486917772       -0.6419698530
 H         -1.8754765743       -5.2296784096        0.9606872003
 H         -0.9496891329       -3.6309383177       -1.5354337213
