  62
        -98.94069562
 C         -2.1153427697       -1.4277811995        0.3930191915
 C         -2.3605748096       -0.8005285600       -0.8532967187
 C         -3.1504592696        0.4387809601       -0.7988395592
 C         -3.5997946595        0.9038880606        0.3799651006
 C         -4.4069805394        2.1554771708        0.5929885201
 C         -3.5548602794        3.4280736507        0.6962839895
 C         -2.9443270793        3.9096731102       -0.6207617307
 H         -3.7286020594        3.9913892299       -1.3739756407
 H         -2.5559999593        4.9151621602       -0.4465750411
 C         -1.8066606294        3.0269381399       -1.1538802803
 H         -1.4425063194        2.3785755202       -0.3535290001
 H         -0.9715006394        3.6584637197       -1.4669744306
 C         -2.1892898495        2.1554235194       -2.3499820000
 H         -1.3176008095        1.5594688492       -2.6336188297
 H         -2.4502278195        2.7897305591       -3.2000670802
 C         -3.3534649395        1.1928044996       -2.0791797496
 H         -4.2951135295        1.7404186396       -2.0535066898
 H         -3.3937449096        0.4649707392       -2.8933269992
 H         -4.1983019293        4.2211139710        1.0837647892
 H         -2.7618853194        3.2562162510        1.4277089096
 H         -5.1357493094        2.2665214805       -0.2101628300
 H         -4.9441902794        2.0228992112        1.5344429701
 O         -3.3675105595        0.2579525011        1.5526153208
 C         -2.6118776396       -0.9007130789        1.5900290413
 O         -2.4595404396       -1.3716516385        2.7342751115
 O         -1.9483183697       -1.2265978505       -1.9637849886
 C         -1.2931668497       -2.6997458595        0.5390494920
 C          0.1744659403       -2.3613753795        0.6008574219
 C          0.9512510203       -2.7202229991        1.6955163420
 C          2.2932026303       -2.3829141592        1.7467375819
 C          2.8860132603       -1.6841540796        0.7105287016
 C          2.1146908903       -1.3129717701       -0.3841631186
 C          0.7693282103       -1.6484541600       -0.4319443884
 H          0.1722305003       -1.3618122403       -1.2851659185
 N          2.6983852104       -0.6058249705       -1.4478839489
 S          3.7552288104        0.6429534595       -1.1134300394
 O          3.7318283605        1.4825183091       -2.2894681098
 O          5.0408056404        0.1003010696       -0.7504586992
 C          3.0567878405        1.5114552802        0.2796729802
 C          1.8459840206        2.1528065802        0.1085489000
 C          1.2896099106        2.8303208507        1.1810892597
 C          1.9453193306        2.8480000211        2.4026715797
 C          3.1594718606        2.1980716311        2.5588206199
 C          3.7236201805        1.5237526006        1.4877586502
 H          4.6693809705        1.0126267606        1.5638341704
 H          3.6672817106        2.2149351915        3.5095966699
 H          1.5062981707        3.3742135615        3.2356489295
 H          0.3479369906        3.3418977507        1.0602054995
 H          1.3613357405        2.1241647598       -0.8547630000
 H          2.0458045604       -0.3563448408       -2.1761362290
 H          3.9328693403       -1.4286407597        0.7279630414
 H          2.8856315403       -2.6695346389        2.6020475920
 H          0.4934615503       -3.2558954887        2.5141422423
 H         -1.5801713998       -3.1130390690        1.5180226222
 C         -1.6331736598       -3.7470818699       -0.5145332475
 C         -0.6534427599       -4.2739525604       -1.5164793373
 C         -1.0924764399       -5.1398055499       -0.3767838969
 H         -1.7474851300       -5.9742181099       -0.5766811366
 H         -0.3808705099       -5.3164210696        0.4159795331
 H         -1.0227268999       -4.4909118707       -2.5074940272
 H          0.3551533002       -3.8915730104       -1.5045981375
 H         -2.6596915598       -3.6603120200       -0.8552003175
