  62
        -98.93487462
 C         -2.0493572730       -0.0778406542        0.5927405265
 C         -3.1799504173       -0.8809841406        0.9035963035
 C         -4.4910355532       -0.2178093457        0.8164213631
 C         -4.5468091831        1.1017210610        0.5678438132
 C         -5.8100278890        1.8935017537        0.3972251992
 C         -6.2509877288        1.9278392747       -1.0728310425
 C         -6.2766002109        0.5541108794       -1.7431733836
 H         -6.6322551040        0.6980582000       -2.7657536359
 H         -5.2556721503        0.1713331579       -1.8087950856
 C         -7.1608835613       -0.4819250978       -1.0351365816
 H         -7.8574367098        0.0221762541       -0.3642800104
 H         -7.7563557262       -1.0058581437       -1.7858370309
 C         -6.3879240352       -1.5472899174       -0.2553394320
 H         -5.6253721840       -1.9912512030       -0.9001377017
 H         -7.0870515810       -2.3417144001        0.0190243331
 C         -5.7105689150       -1.0684286148        1.0347324437
 H         -6.4378029697       -0.5453078248        1.6591197936
 H         -5.3637833180       -1.9524730983        1.5778907250
 H         -7.2438267812        2.3785610681       -1.1244809528
 H         -5.5590312685        2.5666008544       -1.6267955064
 H         -6.5935144159        1.4540088163        1.0118940971
 H         -5.6244367278        2.9141340892        0.7361795254
 O         -3.4360097461        1.8648534983        0.4154488504
 C         -2.1641925142        1.3054113607        0.4397761246
 O         -1.2527814293        2.1486274180        0.3362031968
 H          1.4693208654        0.4191602737        1.8005109456
 C          1.4567611554        0.6059472930        0.7344174684
 C          0.3947107390        0.1456104824       -0.0280934078
 C          0.4033033103        0.3942123577       -1.3968765386
 C          1.4303290974        1.1140816838       -1.9748146024
 C          2.4812313337        1.5851672907       -1.2072518656
 C          2.4893231474        1.3323058645        0.1565629200
 N          3.5716442698        1.7854228265        0.9364666174
 S          5.0980749649        1.3071091999        0.4368764015
 O          5.9242775507        1.3631756682        1.6222384040
 O          5.5237152645        2.1234098616       -0.6713382099
 C          4.8728046108       -0.3802738544       -0.0958123826
 C          4.6648890045       -1.3434993121        0.8719604367
 C          4.4072762737       -2.6461569182        0.4776882774
 C          4.3545918593       -2.9601293841       -0.8721617995
 C          4.5676786341       -1.9824855311       -1.8310105234
 C          4.8275696298       -0.6778236798       -1.4423257886
 H          5.0004195320        0.1109219847       -2.1555672017
 H          4.5271895607       -2.2300369725       -2.8793669185
 H          4.1448650185       -3.9735067346       -1.1757028257
 H          4.2413205673       -3.4099404295        1.2205386641
 H          4.7206564058       -1.0626947143        1.9116806451
 H          3.4553601208        1.6174746167        1.9252462881
 H          3.2909476313        2.1495016573       -1.6411381292
 H          1.4159419536        1.3130127356       -3.0357594741
 H         -0.4161229417        0.0360687375       -2.0020571307
 C         -0.6690588818       -0.7238574532        0.5919163145
 H         -0.3894816394       -0.9186173895        1.6393452714
 C         -0.6743453387       -2.0574472070       -0.1528058367
 C          0.6245478547       -2.7775199322       -0.3775997955
 C         -0.3924681873       -3.3403160774        0.5638467580
 H         -0.9509841537       -4.2168154157        0.2742549835
 H         -0.2005348763       -3.2858022028        1.6244017951
 H          0.7782591999       -3.2688834154       -1.3257436729
 H          1.5197815077       -2.3359179504        0.0345625806
 H         -1.4033258901       -2.0994333566       -0.9537284910
 O         -3.1090165947       -2.0878863873        1.2453123385
