  62
        -98.93912517
 C         -1.1559147776       -1.6771230201        0.0944846818
 C         -2.2093781906       -1.1882298797        0.9037946178
 C         -3.0252537950       -0.0914347722        0.3528031051
 C         -2.7207311809        0.4099707350       -0.8582231078
 C         -3.3771685490        1.4962859066       -1.6852670721
 C         -4.4131845856        2.4292730778       -1.0652495558
 C         -3.8531467861        3.3992481502       -0.0246422837
 H         -3.2246449439        4.1330680625       -0.5356525259
 H         -4.6891246603        3.9360004882        0.4290151009
 C         -3.0113923634        2.7705486169        1.0833880811
 H         -2.1162056356        2.3108841984        0.6580130943
 H         -2.6654837002        3.5733102047        1.7409170271
 C         -3.7308730827        1.7403574390        1.9516442005
 H         -3.0596409446        1.4856954616        2.7771293742
 H         -4.6328832592        2.1838372598        2.3784850950
 C         -4.1149481978        0.4295197381        1.2446381467
 H         -4.2727197916       -0.3324958808        2.0138245809
 H         -5.0469844085        0.5359747546        0.6944509910
 H         -4.8236200929        3.0274875363       -1.8832288925
 H         -5.2373776944        1.8568052979       -0.6502490262
 H         -2.5590335573        2.0999576545       -2.0912262685
 H         -3.8373441439        0.9835120908       -2.5371004695
 O         -1.6832926088       -0.0818944197       -1.5951948448
 C         -0.8570585565       -1.1007240004       -1.1387307452
 O          0.0737879607       -1.3779319113       -1.9151529411
 O         -2.4647217160       -1.6520568478        2.0482555341
 C         -0.2791057879       -2.7798101966        0.6575725555
 C          1.1747729148       -2.4025960427        0.5169593438
 C          2.1154720363       -3.1817256762       -0.1430821358
 C          3.4342855829       -2.7693421359       -0.2214253602
 C          3.8397064219       -1.5772609181        0.3485750529
 C          2.9059595114       -0.7892481644        1.0126582783
 C          1.5887195667       -1.2083987816        1.0965590662
 H          0.8710607816       -0.5884310763        1.6152470242
 N          3.2923283370        0.4188275136        1.6230865318
 S          2.3985098908        1.8054061001        1.3622496676
 O          3.2514409207        2.8731999078        1.8397212954
 O          1.1070480063        1.6970094635        1.9912259963
 C          2.2267099783        1.9259885633       -0.4064314501
 C          3.3533089012        2.1956767245       -1.1591788808
 C          3.2390717572        2.2490806135       -2.5380826724
 C          2.0079255550        2.0287821044       -3.1374775665
 C          0.8859133905        1.7669210795       -2.3680069660
 C          0.9959644281        1.7133287942       -0.9881589674
 H          0.1501331036        1.5038263409       -0.3513769119
 H         -0.0690114401        1.5779312713       -2.8316626159
 H          1.9193686497        2.0609171148       -4.2119174653
 H          4.1077293765        2.4568481414       -3.1419362257
 H          4.2899764403        2.3739215667       -0.6561730476
 H          4.2790325435        0.6204300081        1.5437174909
 H          4.8681717293       -1.2559563112        0.2843950263
 H          4.1547895210       -3.3821939858       -0.7412452513
 H          1.8136281760       -4.1031598506       -0.6126086211
 H         -0.5163128342       -2.7901007903        1.7353862625
 C         -0.6015737679       -4.1713307338        0.1340167529
 C         -1.9743375102       -4.5092038913       -0.3639485118
 C         -0.8233670808       -4.4534498844       -1.3207695689
 H         -0.4499815242       -5.3837833011       -1.7233670234
 H         -0.7600787226       -3.6230932934       -2.0056850773
 H         -2.3895813096       -5.4728011502       -0.1091769171
 H         -2.7049539067       -3.7137282084       -0.3945605094
 H         -0.0992222609       -4.9440975474        0.7081227788
