  62
        -98.94433563
 C         -1.6156591190       -1.3749435779        0.5406944565
 C         -1.6085235274       -0.0671727419        1.0903141357
 C         -2.7367166395        0.7931963794        0.7200569722
 C         -3.7037783418        0.3147020722       -0.0836183962
 C         -4.9370241761        1.0559528840       -0.5239804098
 C         -4.7223212776        1.9483809625       -1.7539526607
 C         -3.9058714080        3.2159744918       -1.5000694328
 H         -4.3347969483        3.7595917035       -0.6577739360
 H         -4.0124350695        3.8476665058       -2.3841641609
 C         -2.4123073845        2.9655073506       -1.2480550824
 H         -1.8209477426        3.6695231049       -1.8373543409
 H         -2.1473358393        1.9625367898       -1.5913311323
 C         -1.9783707984        3.1208159131        0.2094494099
 H         -2.1127528818        4.1585293930        0.5215585659
 H         -0.9146076821        2.8806614163        0.2742144571
 C         -2.7258683486        2.2141920564        1.1959646981
 H         -3.7435311892        2.5741434901        1.3454900345
 H         -2.1984925878        2.2404074482        2.1523052854
 H         -5.7088049055        2.2428878638       -2.1196040616
 H         -4.2418068529        1.3551885073       -2.5355782947
 H         -5.3176687857        1.6573410622        0.3019381724
 H         -5.6820766934        0.2977888229       -0.7748001989
 O         -3.6756635490       -0.9459725770       -0.5892024435
 C         -2.6170931408       -1.8067384573       -0.3291540550
 O         -2.7060898136       -2.9013713893       -0.9169351151
 O         -0.7052873299        0.3571167681        1.8584515721
 C         -0.4367832200       -2.2787398746        0.8647339213
 C          0.4898258327       -2.2751036927       -0.3263618406
 C          0.4852598698       -3.2689024890       -1.2971688931
 C          1.3258443664       -3.1749203568       -2.3924565558
 C          2.1964577086       -2.1087318919       -2.5290759787
 C          2.2083892081       -1.1090620717       -1.5624250755
 C          1.3491374021       -1.1934735533       -0.4788438506
 H          1.3454990414       -0.4077469756        0.2620971475
 N          3.0735795241       -0.0091611968       -1.6672954204
 S          3.8867917665        0.5242595826       -0.3004613348
 O          5.0766101708        1.1657814931       -0.8211728642
 O          4.1068092704       -0.5552068180        0.6335704039
 C          2.8408871252        1.7735090279        0.4122047753
 C          2.5141763548        2.8679638492       -0.3644971156
 C          1.7404362228        3.8731939748        0.1907240220
 C          1.3092918629        3.7675377887        1.5053978216
 C          1.6450902936        2.6625407282        2.2707412231
 C          2.4211166472        1.6549419854        1.7211453387
 H          2.6999198410        0.7772038447        2.2825694083
 H          1.2987064300        2.5730928661        3.2873969630
 H          0.7032203200        4.5495715242        1.9352357048
 H          1.4714383862        4.7336551242       -0.4008137017
 H          2.8735623513        2.9150624759       -1.3791483428
 H          3.6847995100       -0.0301864819       -2.4709308736
 H          2.8609011266       -2.0460677222       -3.3779143707
 H          1.3101014745       -3.9487995931       -3.1452640392
 H         -0.1916580000       -4.1021705702       -1.2042144252
 H          0.0888566444       -1.7816327470        1.6920575377
 C         -0.8481800231       -3.6622920282        1.3177273406
 C          0.1702986998       -4.5390640318        1.9810895718
 C         -0.9495756364       -3.9509604354        2.7843105400
 H         -1.7377857428       -4.6047464354        3.1263903920
 H         -0.7189935905       -3.1492248634        3.4706202556
 H          0.1544766607       -5.5980408506        1.7736250259
 H          1.1618363894       -4.1329695821        2.1173823799
 H         -1.5780318993       -4.1321132174        0.6709730749
