  62
        -98.94195641
 C          1.2091333015        1.5737576176        0.5216988940
 C          2.1158862254        1.1534182367       -0.4799405757
 C          3.0996210084        0.1322521444       -0.0812560240
 C          3.0981474637       -0.3340091650        1.1790334389
 C          4.0265479473       -1.3414633273        1.8097959035
 C          4.3678522705       -2.5987517156        0.9990967233
 C          3.2458854864       -3.1169339041        0.0870438823
 H          3.1110194071       -4.1861891488        0.2640607590
 H          2.2955067148       -2.6341107914        0.3262576525
 C          3.5497933185       -2.9260896888       -1.4008058104
 H          4.5912245894       -3.2002671999       -1.5865723630
 H          2.9202179291       -3.6120682803       -1.9730105306
 C          3.2945571724       -1.5216321257       -1.9446308587
 H          3.6244259668       -1.4975231291       -2.9863877310
 H          2.2186229660       -1.3223714141       -1.9429277024
 C          3.9856251266       -0.3802718831       -1.1791303879
 H          4.9589107969       -0.6885512090       -0.8049745962
 H          4.1241856518        0.4547604989       -1.8712932629
 H          5.2554099046       -2.4133730617        0.3952113944
 H          4.6346467078       -3.3737205890        1.7199549766
 H          4.9544998531       -0.8275781881        2.0785551457
 H          3.5366109618       -1.6323199583        2.7422609902
 O          2.2167456182        0.1133525245        2.1178249962
 C          1.2331957870        1.0364890601        1.8060056642
 O          0.4518883870        1.2935890107        2.7462558932
 O          2.1068342589        1.6050752857       -1.6546625420
 C          0.0924548233        2.5395116771        0.1757527190
 C         -0.8012427743        1.9457614061       -0.8896980076
 C         -1.4918736465        2.7161717032       -1.8177718139
 C         -2.3105153698        2.1111821880       -2.7560580042
 C         -2.4704166033        0.7371256955       -2.7861095140
 C         -1.7856601248       -0.0415640297       -1.8602917018
 C         -0.9687383289        0.5694820240       -0.9238268927
 H         -0.4244190323       -0.0488976987       -0.2285303167
 N         -1.8927123885       -1.4391576165       -1.8560302019
 S         -1.7704047793       -2.3000510057       -0.4301347424
 O         -0.4159308915       -2.2890483199        0.0617638994
 O         -2.3112141617       -3.6013832302       -0.7607113541
 C         -2.8742226582       -1.4659529546        0.6957561282
 C         -4.2297138555       -1.5799054043        0.4492966385
 C         -5.1223346561       -0.9087147183        1.2675644300
 C         -4.6473872509       -0.1303281730        2.3130118284
 C         -3.2860968822       -0.0300709245        2.5511988211
 C         -2.3880513219       -0.7041586928        1.7376700040
 H         -1.3248873371       -0.6356161048        1.9090554784
 H         -2.9038678919        0.5726371976        3.3599124491
 H         -5.3403681841        0.3984108727        2.9482082492
 H         -6.1821068788       -0.9906838982        1.0879086202
 H         -4.5589226315       -2.2035803940       -0.3658701282
 H         -2.5813644191       -1.8262432603       -2.4831340866
 H         -3.1050254508        0.2700025134       -3.5231849073
 H         -2.8352618108        2.7203420876       -3.4762053271
 H         -1.3815410647        3.7883517040       -1.8114382274
 H         -0.5074184049        2.6516973150        1.0920966239
 C          0.6512158441        3.8946894858       -0.2092965253
 C         -0.0919290313        5.1497218612        0.1347323440
 C          1.1640539529        4.7970242985        0.8714681300
 H          2.0571199137        5.3733172419        0.6822712175
 H          1.0801461174        4.4449708866        1.8896855392
 H         -0.0596194057        5.9746213857       -0.5610765526
 H         -1.0288523241        5.0502963008        0.6618908197
 H          1.2053856608        3.8638325741       -1.1400419032
