  62
        -98.94487641
 C          1.9271166300        0.1773709997        0.0563301503
 C          2.9485215699        1.0434228692        0.5152645813
 C          4.2599193399        0.4247571190        0.7478138408
 C          4.4083773800       -0.8967799308        0.5420923195
 C          5.7002243000       -1.6462666709        0.6897781789
 C          6.4712006801       -1.6918996795       -0.6369519611
 C          6.6107696402       -0.3303443388       -1.3179046397
 H          7.1978040503       -0.4802665778       -2.2266470398
 H          5.6221079302        0.0157344115       -1.6281466094
 C          7.2761872100        0.7479228603       -0.4512455285
 H          8.0109256001        1.2808027010       -1.0585402779
 H          7.8157998000        0.2798065095        0.3728095511
 C          6.3127108199        1.7977789597        0.1052679625
 H          6.9055369699        2.6215790193        0.5116085534
 H          5.7037848400        2.2025090006       -0.7070438172
 C          5.3734610298        1.3175792686        1.2188410319
 H          5.9536510197        0.8287970078        2.0040706414
 H          4.8886682498        2.1996238081        1.6473755127
 H          5.9456274702       -2.3637352088       -1.3196461119
 H          7.4618526701       -2.1086630897       -0.4461535214
 H          6.3058254499       -1.1687984617        1.4576603794
 H          5.4715158800       -2.6666754312        1.0018655278
 O          3.3969055600       -1.7015379104        0.1268174085
 C          2.1343653201       -1.1884682701       -0.1359031811
 O          1.3075390401       -2.0358989898       -0.5223220721
 H         -1.7231243299       -0.6774233494       -0.9288572510
 C         -1.5669018400       -0.6011664805        0.1334039591
 C         -0.4743882101        0.0799826690        0.6443353299
 C         -0.3050840102        0.1294288276        2.0267889400
 C         -1.1966273903       -0.5010438533        2.8712129892
 C         -2.2846637302       -1.1852488228        2.3564203984
 C         -2.4661644201       -1.2376701414        0.9803854283
 N         -3.5505364400       -1.9426164809        0.4343204074
 S         -4.4649742999       -1.2927859496       -0.8031457420
 O         -5.6526016398       -2.1170216996       -0.8445664630
 O         -3.6959991097       -1.2201031783       -2.0184106218
 C         -4.8839192100        0.3430700698       -0.2297365004
 C         -4.0989118600        1.4177659102       -0.5946289092
 C         -4.3997446501        2.6697148896       -0.0811916079
 C         -5.4725969902        2.8245422387        0.7827809021
 C         -6.2543312902        1.7350084283        1.1363836009
 C         -5.9562391701        0.4804555789        0.6305001697
 H         -6.5438928901       -0.3905840614        0.8713207687
 H         -7.0914193803        1.8596078876        1.8042631209
 H         -5.7018211902        3.8008367883        1.1798530431
 H         -3.7938575500        3.5180782399       -0.3569501170
 H         -3.2765375399        1.2605709709       -1.2724944992
 H         -4.1426448901       -2.3909281716        1.1179744969
 H         -2.9788740503       -1.6864804035        3.0136972678
 H         -1.0472620604       -0.4596297644        3.9395897693
 H          0.5473179297        0.6611753672        2.4272438506
 C          0.5523796500        0.7575498699       -0.2276942893
 H          0.6171393300        1.8135275196        0.0736893718
 C          0.2456847902        0.6930644314       -1.7082643194
 C         -0.6712578698        1.7014004621       -2.3309516685
 C          0.7999804103        1.7514903624       -2.6123318782
 H          1.1512450404        1.4609483534       -3.5911194985
 H          1.3806413902        2.5397196919       -2.1555711974
 H         -1.3365547997        1.3758555228       -3.1172852689
 H         -1.0813167799        2.4647646114       -1.6868009977
 H          0.2238000003       -0.3215795082       -2.0908487504
 O          2.7697789499        2.2734457890        0.7241345825
