  62
        -98.94414756
 C          2.1974516340       -0.7736968401        0.0249152597
 C          2.9066423249       -0.0854250109       -0.9872345771
 C          3.6986914992        1.0701348416       -0.5453842684
 C          3.6747419120        1.4253319246        0.7525819838
 C          4.4741354511        2.5469002133        1.3486795843
 C          5.8354771525        2.0493305569        1.8545481627
 C          6.6009595702        1.2032352532        0.8371684055
 H          7.5570891489        0.9345899305        1.2913538935
 H          6.0549399151        0.2730457044        0.6640600096
 C          6.8520027586        1.9000302376       -0.5074288596
 H          6.7232131465        2.9773314760       -0.3966915978
 H          7.8885508321        1.7263864972       -0.8038489041
 C          5.9720964666        1.4003873703       -1.6548325039
 H          6.0268530511        0.3102018840       -1.7106674640
 H          6.3756534241        1.7962575641       -2.5906547082
 C          4.4940494395        1.8053035827       -1.5874108794
 H          4.4143457567        2.8850164737       -1.4441884550
 H          4.0357376647        1.5521812973       -2.5482733616
 H          6.4364998026        2.9159260345        2.1357770823
 H          5.6717223359        1.4439081441        2.7489259753
 H          4.6148115402        3.3245766968        0.6004386786
 H          3.9131701351        2.9601348266        2.1885844460
 O          2.9455536070        0.7662192015        1.6885565861
 C          2.1969998616       -0.3537815615        1.3554602352
 O          1.5875212618       -0.8675405631        2.3110943701
 H         -0.0618057518        0.1849731169       -0.8473763861
 C         -0.6657674318       -0.5735336889       -0.3631625980
 C         -0.0774305940       -1.7837675153       -0.0158384210
 C         -0.8691809335       -2.7526218689        0.5862072375
 C         -2.2044398647       -2.5014430796        0.8516395094
 C         -2.7790333284       -1.2880533125        0.5229386436
 C         -2.0009442032       -0.3166166854       -0.0936656375
 N         -2.5737429828        0.9244774982       -0.4251656677
 S         -3.9954162362        0.9246960580       -1.3203681838
 O         -4.0890612974       -0.2454578384       -2.1624048880
 O         -4.0172205485        2.2050137971       -1.9937101977
 C         -5.2796038287        0.8956621994       -0.0877929930
 C         -6.2263317863       -0.1098553662       -0.1022614830
 C         -7.2208171029       -0.1074340359        0.8635466912
 C         -7.2512643647        0.8955846673        1.8202359342
 C         -6.2946696134        1.9000130247        1.8189762681
 C         -5.2983063601        1.9038364133        0.8559834827
 H         -4.5388902022        2.6670215999        0.8179416886
 H         -6.3214698672        2.6782541481        2.5646143505
 H         -8.0250861331        0.8950639985        2.5715553325
 H         -7.9655763061       -0.8869804412        0.8661358655
 H         -6.1594163401       -0.8714008919       -0.8627860813
 H         -1.9140228056        1.5834182278       -0.8127021548
 H         -3.8159190564       -1.0864969225        0.7362083039
 H         -2.8053926738       -3.2616720688        1.3266869947
 H         -0.4401722113       -3.7045135309        0.8523202749
 C          1.3794053751       -1.9953362498       -0.3494235323
 H          1.4655383508       -2.0809133197       -1.4436784493
 C          1.9720822436       -3.2375586388        0.2829862326
 C          1.8477475181       -4.5676547278       -0.3962639060
 C          3.1724541809       -3.8688820976       -0.3541588378
 H          3.9474966246       -4.2652790124        0.2844904420
 H          3.5442616277       -3.4193723829       -1.2636674936
 H          1.3228913289       -4.6006786214       -1.3391363154
 H          1.7157711550       -5.4482443572        0.2141217934
 H          1.9382215707       -3.2075209732        1.3662787901
 O          2.8736237265       -0.4181043513       -2.2040375969
