  62
        -98.93688041
 C         -1.4057399294       -1.0636814401       -0.0083385386
 C         -2.7446486193       -1.5240364704        0.0090225118
 C         -3.7773961596       -0.5588654403        0.4256888107
 C         -3.4081970399        0.6817119002        0.7941937195
 C         -4.2224316302        1.8559858405        1.2961372282
 C         -5.7413883002        1.8749798800        1.1458323381
 C         -6.2410415101        1.9713635984       -0.2953083021
 H         -7.3294920201        1.8809544182       -0.2863316021
 H         -5.9932251703        2.9623969581       -0.6837950531
 C         -5.6656088498        0.9406722476       -1.2635237010
 H         -4.5881473498        1.0894551177       -1.3603433510
 H         -6.1048250698        1.1248438365       -2.2478399412
 C         -5.9346080895       -0.5186968521       -0.9010757095
 H         -5.6178478993       -1.1322361829       -1.7491162988
 H         -7.0066104895       -0.6716086522       -0.7619636994
 C         -5.1981404695       -1.0381585707        0.3462052911
 H         -5.7389404796       -0.7908907099        1.2566793108
 H         -5.1502872492       -2.1291519507        0.2800820222
 H         -6.1808824400        1.0158925104        1.6441057089
 H         -6.0953565005        2.7630079305        1.6766902571
 H         -3.9792953703        1.9519869417        2.3600728081
 H         -3.8037103904        2.7394049801        0.8040138373
 O         -2.0987540100        1.0636305305        0.8129567092
 C         -1.0672049098        0.2201036704        0.4198828601
 O          0.0606908301        0.7337528007        0.5082250497
 O         -3.0685299990       -2.7020324708       -0.3014448970
 C         -0.3280372792       -2.0347593803       -0.4548410575
 C          0.8430631007       -1.9798686791        0.4915024926
 C          0.6652085807       -2.4169418178        1.8017924930
 C          1.7016634907       -2.3590999766        2.7125212130
 C          2.9363876806       -1.8596071067        2.3371215626
 C          3.1250297806       -1.4247570780        1.0308991622
 C          2.0842957307       -1.4928832692        0.1150294722
 H          2.2548884507       -1.1427805902       -0.8885198882
 N          4.3728283605       -0.9367639581        0.6219387318
 S          4.5275551103        0.2134430007       -0.5740798494
 O          4.2643227906       -0.3735725607       -1.8649835088
 O          5.8706076202        0.7245268012       -0.3868706898
 C          3.3561700100        1.5115543307       -0.2292511408
 C          2.5576818200        1.9859932395       -1.2471807014
 C          1.6857796497        3.0291228696       -0.9854192925
 C          1.6266657895        3.5753197509        0.2854280069
 C          2.4368531495        3.0879951021        1.2980236475
 C          3.3133455798        2.0480826420        1.0409859486
 H          3.9566916198        1.6524982630        1.8104637291
 H          2.3814261893        3.5110042131        2.2884926170
 H          0.9382385293        4.3803840109        0.4901791460
 H          1.0483405897        3.4038027986       -1.7711029829
 H          2.6257981201        1.5253344285       -2.2198902309
 H          5.0509755704       -0.8112488072        1.3581771617
 H          3.7471664505       -1.8069440758        3.0476577826
 H          1.5478507307       -2.6992088956        3.7256036033
 H         -0.3039280892       -2.7947633877        2.0985481333
 H         -0.7961423289       -3.0292357904       -0.3628913665
 C          0.0776120309       -1.8787100017       -1.9126111076
 C         -0.9128271891       -1.4370818030       -2.9467659681
 C          0.2237565607       -0.5386550124       -2.5662039690
 H          1.0323328307       -0.4041440029       -3.2706421990
 H          0.0156794404        0.3348525382       -1.9678996299
 H         -0.8927231289       -1.9147060140       -3.9148395277
 H         -1.9050997692       -1.1764170129       -2.6084895185
 H          0.7838858611       -2.6447050019       -2.2199409968
