  62
        -98.94797191
 C          0.7762314536        1.2119775084        0.5782190282
 C          1.2190821005        0.7657665797       -0.6902270749
 C          2.1519455782       -0.3693116956       -0.6763933157
 C          2.4927430562       -0.9287371911        0.4986618142
 C          3.5268401178       -2.0034528802        0.6651827059
 C          4.9160049404       -1.3940982418        0.9051237881
 C          5.3006788806       -0.3139737478       -0.1061984478
 H          4.6420062849        0.5478273891        0.0238914921
 H          6.3122821130        0.0161778142        0.1400997777
 C          5.2536247540       -0.7702013695       -1.5713141189
 H          6.1547832384       -0.4167145803       -2.0768382777
 H          5.2615997488       -1.8594526014       -1.6208895342
 C          4.0594539030       -0.2343490191       -2.3634268216
 H          4.2343387048       -0.4393918721       -3.4228859168
 H          4.0003793963        0.8506392991       -2.2462617911
 C          2.6945458341       -0.8325069646       -1.9986116773
 H          1.9740003385       -0.4971862669       -2.7499761839
 H          2.7484419160       -1.9216447541       -2.0327865987
 H          5.6540752482       -2.1978798181        0.8787400394
 H          4.9332839364       -0.9500181290        1.9031851472
 H          3.5473488616       -2.6248100418       -0.2270079409
 H          3.2584350350       -2.6167713537        1.5260175998
 O          1.9771329272       -0.5264656056        1.6890611674
 C          1.1194395101        0.5586405075        1.7604577571
 O          0.7358770379        0.8380862359        2.9157962177
 O          0.8686506532        1.2981405854       -1.7750815273
 C         -0.1150501025        2.4358846828        0.6739236548
 C         -1.3511549356        2.2673495290       -0.1748025237
 C         -1.8873692302        3.2876124727       -0.9500534229
 C         -3.0332088624        3.0699477377       -1.6951195596
 C         -3.6688837577        1.8426398757       -1.6778439132
 C         -3.1429678921        0.8163206797       -0.9001091325
 C         -1.9970353901        1.0380802471       -0.1548350660
 H         -1.5950162609        0.2436352681        0.4573625502
 N         -3.7388982009       -0.4502195840       -0.8902722092
 S         -3.5490865111       -1.5035799967        0.3834256860
 O         -4.5493037496       -2.5242042076        0.1483986055
 O         -3.6310969393       -0.8321753981        1.6602314316
 C         -1.9391382586       -2.2256622952        0.1529944378
 C         -1.5305514096       -2.5604141108       -1.1222988006
 C         -0.3103228398       -3.1947186878       -1.2879223277
 C          0.4702582196       -3.4923999673       -0.1820186937
 C          0.0493222909       -3.1437554658        1.0914273050
 C         -1.1660453419       -2.5018090945        1.2628263348
 H         -1.5226361390       -2.2004666169        2.2358901726
 H          0.6595659019       -3.3641476521        1.9527744338
 H          1.4110209723       -4.0030857673       -0.3100665923
 H          0.0256786642       -3.4584341347       -2.2777165508
 H         -2.1647569299       -2.3199249288       -1.9591725966
 H         -4.6309694832       -0.5298197848       -1.3537812879
 H         -4.5597565709        1.6730917239       -2.2627937088
 H         -3.4380799244        3.8690053149       -2.2974957926
 H         -1.4067279958        4.2517784157       -0.9752821220
 H         -0.4339923914        2.5019032096        1.7253852444
 C          0.6854940074        3.6758682286        0.3269744893
 C          0.3773112321        4.9889106667        0.9795403620
 C          1.6211233637        4.2406882162        1.3516609035
 H          2.5750404190        4.6265436222        1.0245205493
 H          1.6560298773        3.7481640465        2.3129722306
 H          0.4807584151        5.8922548464        0.3973684149
 H         -0.4299229886        5.0144666012        1.6960715961
 H          1.0136092552        3.6804626992       -0.7064173405
