  62
        -98.94798890
 C         -2.3463348377       -0.2140450360        0.1430502998
 C         -1.7543634256        0.3938897373       -0.9902934822
 C         -1.6498750477        1.8573459522       -0.9499995330
 C         -1.9995034015        2.5194106274        0.1673396675
 C         -1.9384717573        4.0087820125        0.3714297960
 C         -0.5427793754        4.5237962951        0.7496108897
 C          0.4633127481        4.5814266374       -0.4006435030
 H          0.0144553070        5.0983385712       -1.2501107933
 H          1.3053197908        5.1856164811       -0.0567741842
 C          0.9945144426        3.2121393121       -0.8472700181
 H          0.8159607645        2.4758472747       -0.0599235836
 H          2.0782527925        3.2695136498       -0.9809542455
 C          0.4047069972        2.6998605627       -2.1605041447
 H          0.8352236556        1.7174469556       -2.3628878816
 H          0.6922950061        3.3691538332       -2.9749889240
 C         -1.1229652390        2.5640541096       -2.1643498172
 H         -1.5839660358        3.5486582212       -2.2469178086
 H         -1.4078051476        1.9708072563       -3.0372157680
 H         -0.6645424154        5.5331332593        1.1506053990
 H         -0.1416243801        3.8924576762        1.5468264591
 H         -2.2854764440        4.5193510734       -0.5277709468
 H         -2.6251640128        4.2383748491        1.1892341744
 O         -2.4824185266        1.8893933505        1.2712389699
 C         -2.6610436544        0.5181417435        1.2873482628
 O         -3.1104562009        0.0698608329        2.3650830518
 H         -0.6381158644       -1.2077257582        1.9646637270
 C         -0.2726352388       -1.8937908387        1.2104223027
 C         -1.1390951429       -2.3319677006        0.2152517413
 C         -0.6559300526       -3.2163733098       -0.7392348044
 C          0.6709370311       -3.6151948069       -0.7187648161
 C          1.5457863363       -3.1180759649        0.2307854642
 C          1.0625648193       -2.2518607132        1.2023899157
 N          1.9854706667       -1.6443853490        2.1092512602
 S          2.2872951740       -0.0527969273        1.6185265536
 O          3.2686956288        0.4670417440        2.5470447412
 O          1.0644554495        0.7168082859        1.5211406095
 C          3.0125003222       -0.2954731369        0.0159580775
 C          2.1886700340       -0.3996707732       -1.0873110797
 C          2.7603097197       -0.6496335150       -2.3250512112
 C          4.1348973469       -0.7902941122       -2.4373239032
 C          4.9479791092       -0.6817216063       -1.3188467956
 C          4.3833122661       -0.4364018139       -0.0776212909
 H          4.9713952304       -0.3445798690        0.8207355490
 H          6.0166316667       -0.7913855592       -1.4096563274
 H          4.5732091582       -0.9861318187       -3.4031996570
 H          2.1203943385       -0.7376825131       -3.1887275503
 H          1.1213965858       -0.2882012837       -0.9711166060
 H          1.6334421735       -1.6113299974        3.0576550314
 H          2.5909725165       -3.3806991890        0.2281229407
 H          1.0339272559       -4.2975275640       -1.4714681852
 H         -1.3136359467       -3.5754768642       -1.5135304524
 C         -2.5205306922       -1.7255040923        0.2037985220
 H         -2.9994404358       -1.9367865852        1.1707233808
 C         -3.4101499061       -2.2276759290       -0.9112115976
 C         -4.1180323614       -3.5402547403       -0.7644094699
 C         -4.8928035098       -2.2592770038       -0.6996422935
 H         -5.5365854059       -2.0010401581       -1.5268099246
 H         -5.2657099300       -1.9326505022        0.2605542240
 H         -3.9689234762       -4.0881672180        0.1537617619
 H         -4.2346632109       -4.1643414945       -1.6371767382
 H         -3.0526248228       -1.9439368329       -1.8934435030
 O         -1.3446969807       -0.2458818195       -1.9937994260
