  62
        -98.93705234
 C         -2.5589809128       -0.2554005281        0.1728895064
 C         -2.7137072005        0.9104510553        0.9660732082
 C         -2.4450201767        2.1894432938        0.3000571397
 C         -2.0848397032        2.2021751807       -0.9958027719
 C         -1.7748918876        3.4235949345       -1.8180294449
 C         -0.3268551121        3.9127618495       -1.6740295919
 C          0.0008228408        4.5811135881       -0.3377388382
 H          0.9690340397        5.0729235978       -0.4506758169
 H         -0.7345293334        5.3604670371       -0.1362470161
 C          0.0690849327        3.6161441817        0.8546845392
 H          0.1621328787        2.5904117560        0.4889343100
 H          0.9629557778        3.8268790101        1.4458370957
 C         -1.1291377389        3.6978286200        1.8013292360
 H         -0.9957007276        2.9526137118        2.5898147487
 H         -1.1580506098        4.6829198047        2.2716925141
 C         -2.4848217345        3.4369438877        1.1303046410
 H         -2.7754235000        4.2917013730        0.5202447782
 H         -3.2334007979        3.2935903428        1.9131871873
 H          0.3417475544        3.0637437865       -1.8374473721
 H         -0.1464814263        4.6357520496       -2.4728877146
 H         -2.4621298958        4.2281432709       -1.5554313326
 H         -1.9434695693        3.1476456955       -2.8612444325
 O         -1.9631122055        1.0646816055       -1.7296007709
 C         -2.1483888094       -0.1904711672       -1.1606316219
 O         -1.9207035014       -1.1308427692       -1.9433211901
 O         -3.0410864987        0.8810714894        2.1824062434
 C         -2.6986309229       -1.5990523714        0.8691851636
 C         -1.4495023075       -2.4050667864        0.6100821666
 C         -1.4354496304       -3.6575355909        0.0135690697
 C         -0.2340770466       -4.2985708169       -0.2426744496
 C          0.9711041371       -3.7093249417        0.0890752592
 C          0.9666487018       -2.4572128838        0.6902970044
 C         -0.2350205144       -1.8228019614        0.9549975318
 H         -0.2351782698       -0.8420651568        1.4168249795
 N          2.1924467769       -1.8508712442        1.0213386531
 S          3.3068121347       -1.6708448427       -0.2407382554
 O          2.6422227460       -1.8311377721       -1.5111970006
 O          4.4104165812       -2.5672077101        0.0093906406
 C          3.8391650323        0.0175073829       -0.0302435059
 C          3.0221279340        1.0175619470       -0.5236870783
 C          3.3996943700        2.3390539199       -0.3490438209
 C          4.5795441923        2.6358723609        0.3176355804
 C          5.3877184112        1.6217305385        0.8085548546
 C          5.0165962756        0.2972141672        0.6355768533
 H          5.6138201896       -0.5253403064        0.9932314436
 H          6.3045193031        1.8577243179        1.3240786055
 H          4.8694541725        3.6658612059        0.4520633505
 H          2.7725566196        3.1284030343       -0.7310490189
 H          2.1161813714        0.7388365686       -1.0415500157
 H          2.0691343906       -0.9784738725        1.5165767855
 H          1.9167814100       -4.1826979774       -0.1265269172
 H         -0.2380386550       -5.2674572351       -0.7191881991
 H         -2.3627088903       -4.1207458068       -0.2815033748
 H         -2.7171786281       -1.3426232790        1.9423107942
 C         -3.9898330331       -2.3501586611        0.5915503904
 C         -5.2393340994       -1.6144175557        0.2116468721
 C         -4.5629363305       -2.5061664421       -0.7838339967
 H         -5.0377757706       -3.4439338709       -1.0338540189
 H         -4.0271888746       -2.0566125296       -1.6042847351
 H         -6.1765739900       -1.9354265012        0.6407885081
 H         -5.1651546197       -0.5456836992        0.0709935710
 H         -4.1166250441       -3.1918588810        1.2659023395
