  62
        -98.94181533
 C         -2.2651622606       -0.7049927796        0.1214584393
 C         -3.4467322107       -1.0384239405        0.8354657388
 C         -4.4179808905        0.0431062094        1.0274971603
 C         -4.1255476004        1.2831618299        0.5971915820
 C         -5.0003954103        2.4989827798        0.7391116936
 C         -6.0639164103        2.6325968114       -0.3597231562
 C         -7.2252380504        1.6418496814       -0.2663188475
 H         -7.6507369204        1.6769483401        0.7370191826
 H         -7.9956620104        1.9860789824       -0.9591374270
 C         -6.8544738406        0.1947232618       -0.6201778394
 H         -5.9047517606        0.1844655124       -1.1603707694
 H         -7.6083244606       -0.2207152072       -1.2927023899
 C         -6.7517007506       -0.7447520398        0.5815536693
 H         -6.4501877407       -1.7316992594        0.2209982980
 H         -7.7316560106       -0.8442741803        1.0531974192
 C         -5.7399342306       -0.2988947913        1.6454844399
 H         -6.1306827005        0.5511063480        2.2042523810
 H         -5.5790744306       -1.1297986723        2.3365864088
 H         -6.4714118802        3.6442671313       -0.2965714348
 H         -5.5756668904        2.5319365526       -1.3319797063
 H         -5.4838458203        2.4905039986        1.7164398436
 H         -4.3384336702        3.3661364998        0.6857541847
 O         -2.9520822504        1.5813978806       -0.0183639977
 C         -2.0045698205        0.6008861609       -0.2981310390
 O         -1.0096305905        1.0362294116       -0.9081907885
 H          0.8031406393       -0.9147624676       -1.6559372611
 C          1.0535590193       -0.9527255990       -0.6072508712
 C          0.1118213393       -1.3974817301        0.3058874683
 C          0.4422160893       -1.4011768319        1.6578589982
 C          1.6874557394       -0.9760060026        2.0799672688
 C          2.6258580294       -0.5308577415        1.1649371693
 C          2.2976022094       -0.5027084897       -0.1833469706
 N          3.2361637994       -0.0520054585       -1.1241073800
 S          4.2221630195        1.2537931309       -0.7645994383
 O          3.5925297596        2.1918854398        0.1351526329
 O          4.6343359095        1.7732352426       -2.0508596576
 C          5.6303957595        0.4998016297        0.0268866906
 C          6.2349513393       -0.5727751295       -0.5991540208
 C          7.3371088393       -1.1627958304       -0.0016402016
 C          7.8168161894       -0.6714511820        1.2033512890
 C          7.2021546395        0.4088504672        1.8172639005
 C          6.0982390696        1.0026886281        1.2250288413
 H          5.5847141296        1.8406255776        1.6695689324
 H          7.5762865996        0.7906253559        2.7536536910
 H          8.6746051594       -1.1329710727        1.6665203084
 H          7.8177076392       -2.0029518298       -0.4764734128
 H          5.8333805693       -0.9236427382       -1.5349497313
 H          2.8671763094        0.0196321928       -2.0611529099
 H          3.5930957194       -0.1837157120        1.4892103198
 H          1.9317792694       -0.9872060440        3.1313726988
 H         -0.2953503507       -1.7330590628        2.3755915478
 C         -1.2683272208       -1.8261486094       -0.1183315423
 H         -1.5988522308       -2.6281829403        0.5614194467
 C         -1.3029567409       -2.4114092375       -1.5227705130
 C         -2.6084709609       -2.5928963465       -2.2362289732
 C         -1.6080037908       -1.6010757059       -2.7453773520
 H         -1.0754563209       -1.8342177547       -3.6563397123
 H         -1.8118911807       -0.5490920460       -2.6200891605
 H         -3.4959751408       -2.2164645670       -1.7484463427
 H         -2.7697732510       -3.5000206357       -2.7986867245
 H         -0.5734961609       -3.2070432674       -1.6412322841
 O         -3.6781501608       -2.1891222310        1.2915463073
