  62
        -98.93577972
 C          2.3069461402        1.0496588273        0.1310550868
 C          3.5560841130        0.9366971449        0.7918086092
 C          4.5504788583        0.0101130179        0.2175977503
 C          4.2133205589       -0.6989516591       -0.8750951922
 C          5.0299200031       -1.7278278063       -1.6111104576
 C          5.0931710882       -3.0736008843       -0.8716747331
 C          5.3561868691       -2.9702961347        0.6282952934
 H          4.5713433718       -2.3670543012        1.0883110681
 H          5.2782822555       -3.9767212518        1.0480437488
 C          6.7226880225       -2.4077481829        1.0126805814
 H          7.5035642453       -3.0308957903        0.5712138650
 H          6.8104427536       -2.4860988481        2.0992961074
 C          6.9821387781       -0.9512509968        0.6209205778
 H          7.2299167919       -0.8652462509       -0.4337007390
 H          7.8647823585       -0.6182648241        1.1746792029
 C          5.8556558993        0.0136769234        0.9766451853
 H          5.5921774752       -0.1148754861        2.0326199650
 H          6.2375469674        1.0389511546        0.8994676964
 H          4.1334242912       -3.5785738281       -1.0076769673
 H          5.8658680185       -3.6869163328       -1.3384393617
 H          4.5405467368       -1.8841614782       -2.5751613267
 H          6.0276978315       -1.3451276328       -1.8044190678
 O          2.9877992402       -0.5851766183       -1.4600239071
 C          2.0081275487        0.2755072864       -0.9910726664
 O          0.9585515489        0.2472003493       -1.6617980356
 O          3.8385237777        1.5860895991        1.8343536193
 C          1.2871274416        1.9989761538        0.7371724722
 C         -0.0240058691        1.2832008542        0.9317350468
 C         -0.1873882287        0.4388523624        2.0258691132
 C         -1.3618362312       -0.2682364255        2.2013499730
 C         -2.3922008285       -0.1579260800        1.2837334731
 C         -2.2293655517        0.6642670322        0.1773959909
 C         -1.0595601390        1.3959126369        0.0185614438
 H         -0.9382984897        2.0239218219       -0.8502149083
 N         -3.2615312127        0.7763768256       -0.7680927674
 S         -4.0857921831       -0.6036351123       -1.2466717907
 O         -3.2707222770       -1.7924318804       -1.1554025084
 O         -4.6197664801       -0.2865142446       -2.5537634859
 C         -5.4363588160       -0.6999335806       -0.0870047108
 C         -6.2209662033        0.4219668897        0.0962607435
 C         -7.2819380432        0.3592045226        0.9852874307
 C         -7.5420892380       -0.8185178135        1.6700757053
 C         -6.7481147501       -1.9375734073        1.4723055896
 C         -5.6844620158       -1.8807419767        0.5849324146
 H         -5.0370909248       -2.7241841056        0.4032976861
 H         -6.9516490012       -2.8528684308        2.0046215170
 H         -8.3683400826       -0.8646790233        2.3617981715
 H         -7.9016183875        1.2274625854        1.1415346942
 H         -5.9875059182        1.3162615973       -0.4567410672
 H         -3.0101944163        1.3371776365       -1.5695481989
 H         -3.3040787764       -0.7192508001        1.4052765724
 H         -1.4769517116       -0.9159038521        3.0572503393
 H          0.6242492688        0.3362970328        2.7330315847
 H          1.6982978089        2.2355583289        1.7317447017
 C          1.1360174473        3.3255357145        0.0075786697
 C          2.3372525924        4.0232731346       -0.5549544891
 C          1.2894634923        3.4759927028       -1.4750331224
 H          0.6415670829        4.1749905170       -1.9844064380
 H          1.5185340542        2.5958429356       -2.0550921191
 H          2.4158545155        5.0936470436       -0.4393968252
 H          3.2832659420        3.5048910332       -0.4960004301
 H          0.3892001741        3.9562630868        0.4807018644
