  62
        -98.94263493
 C          1.9544242195        1.5558554303       -0.0513268112
 C          1.5777139695        0.2755913499       -0.5303113002
 C          2.6704915996       -0.7044320201       -0.6540038698
 C          3.9288935196       -0.3412494998       -0.3508257803
 C          5.1223283597       -1.2500568997       -0.3967395900
 C          5.3617993801       -1.9187767288        0.9640152404
 C          4.1077821903       -2.5499692884        1.5690342612
 H          4.4023245205       -3.0198730177        2.5100324314
 H          3.3936743403       -1.7604117683        1.8146642208
 C          3.4243396301       -3.5891907491        0.6696156721
 H          4.1216100000       -3.9302338296       -0.0965425578
 H          3.1622715204       -4.4575582087        1.2778389528
 C          2.1340116099       -3.1058505697        0.0041865121
 H          1.4719910701       -2.6728687092        0.7581431919
 H          1.6283657799       -3.9781372200       -0.4173325872
 C          2.3032587696       -2.0829416805       -1.1260083587
 H          3.0314419494       -2.4505257109       -1.8517802386
 H          1.3358870194       -1.9769740309       -1.6253993785
 H          6.1338383301       -2.6809999688        0.8435947508
 H          5.7359046602       -1.1641863782        1.6600106298
 H          4.9683773096       -2.0065183803       -1.1636507994
 H          5.9987727696       -0.6542993398       -0.6578338606
 O          4.2537004896        0.9020964905        0.0883327387
 C          3.2760926996        1.8635468806        0.2824839783
 O          3.7026643696        2.9385800310        0.7500298074
 H         -1.6436814107        2.3418690095       -0.7525728709
 C         -1.5162952004        1.9705134502        0.2521138794
 C         -0.2800836603        2.0613656907        0.8699334390
 C         -0.1387649299        1.5439534216        2.1544848093
 C         -1.2055428497        0.9464377120        2.7980431400
 C         -2.4376950299        0.8515613115        2.1749893304
 C         -2.5874159502        1.3619617306        0.8929874901
 N         -3.8337650804        1.2696232000        0.2446755804
 S         -4.5800457503       -0.2259387801        0.1525448017
 O         -5.6063765105       -0.0653481709       -0.8535817582
 O         -5.0363012799       -0.6100667792        1.4652262321
 C         -3.3352641403       -1.3638948304       -0.4223880478
 C         -2.6441473000       -2.1402395397        0.4842980026
 C         -1.6663819401       -3.0021350100        0.0160347429
 C         -1.3959683204       -3.0685229709       -1.3409616571
 C         -2.0936343207       -2.2759983016       -2.2380586975
 C         -3.0715635106       -1.4120333414       -1.7761716979
 H         -3.6443743809       -0.7879991619       -2.4435637282
 H         -1.8750655009       -2.3256216723       -3.2929309375
 H         -0.6359482704       -3.7431813911       -1.7029727368
 H         -1.1163796499       -3.6168257895        0.7107206932
 H         -2.8873703598       -2.0644155690        1.5315229626
 H         -3.8390602706        1.7053114594       -0.6667214599
 H         -3.2791844697        0.3817861417        2.6578928509
 H         -1.0783514494        0.5479540127        3.7935652503
 H          0.8276084602        1.6050546121        2.6374883091
 C          0.9293419195        2.6522423603        0.1897751483
 H          1.4131250796        3.3450608409        0.8976376377
 C          0.5856191691        3.4686978894       -1.0472365022
 C          1.6126624789        3.7227106088       -2.1087609126
 C          0.4317961889        2.8495854885       -2.4030625617
 H         -0.3359578813        3.2355681379       -3.0583889018
 H          0.5851400489        1.7854581584       -2.4878382410
 H          1.6546563387        4.7040293985       -2.5570908333
 H          2.5800598489        3.2568809189       -1.9899279725
 H         -0.0746686109        4.2982085796       -0.8112673426
 O          0.4040693695       -0.0472330604       -0.8437895197
