  62
        -98.93882527
 C         -1.2260064205       -1.1827456989       -0.8744984515
 C         -2.5859191405       -1.3716657988       -0.4930411415
 C         -3.4672894701       -0.2029198885       -0.5486065905
 C         -2.9751775298        0.9791927717       -0.9569555095
 C         -3.7434733495        2.2657130921       -1.0904415384
 C         -3.8705818591        3.0499491010        0.2225520323
 C         -4.8365607192        2.4501343904        1.2451770219
 H         -5.7975406293        2.2575509711        0.7668317618
 H         -5.0003464590        3.2081037798        2.0138140525
 C         -4.3283351196        1.1678174397        1.9193742408
 H         -4.4976981295        1.2319094388        2.9968827408
 H         -3.2481002596        1.0820938195        1.7741815306
 C         -5.0004932500       -0.1160826897        1.4314797397
 H         -6.0594348899       -0.0986356196        1.6991446498
 H         -4.5359223902       -0.9607330003        1.9467455590
 C         -4.8819196102       -0.3592628785       -0.0785786505
 H         -5.5391228400        0.3198892122       -0.6215232999
 H         -5.1900348505       -1.3870826382       -0.2852024914
 H         -4.2187435989        4.0546615213       -0.0288507468
 H         -2.8783594391        3.1437513403        0.6716179523
 H         -4.7367822196        2.0601990527       -1.4909272385
 H         -3.1981195593        2.8818636825       -1.8086135279
 O         -1.6803790498        1.1271913417       -1.3269268695
 C         -0.7676290101        0.0782854413       -1.2670401105
 O          0.3758412800        0.4331023313       -1.6079092602
 O         -3.0517204008       -2.4844202690       -0.1239213325
 C         -0.3627396208       -2.4288051592       -0.7490180026
 C          0.5364343593       -2.4010900605        0.4670566073
 C          0.5572702590       -3.4803125113        1.3454392264
 C          1.3684424391       -3.4623553925        2.4655808164
 C          2.1598606495       -2.3619103429        2.7433840972
 C          2.1474383397       -1.2803639722        1.8706307182
 C          1.3575449596       -1.3159528310        0.7307314282
 H          1.3606435498       -0.4719255904        0.0638752889
 N          2.9438712001       -0.1515735926        2.1052559191
 S          2.4282002605        1.3652871980        1.6197490004
 O          3.2187972008        2.2781363870        2.4242883411
 O          0.9959978405        1.5129834383        1.7544801506
 C          2.9516718404        1.5257074092       -0.0728413295
 C          3.9584494001        0.7206294894       -0.5647346303
 C          4.3742949201        0.8977785804       -1.8744398402
 C          3.7868605303        1.8753679612       -2.6616487693
 C          2.7822340606        2.6799792811       -2.1491327185
 C          2.3582667606        2.5046469801       -0.8422953986
 H          1.5641327908        3.0949763599       -0.4127594081
 H          2.3179047307        3.4344299117       -2.7640638578
 H          4.1077559503        2.0067256520       -3.6832159292
 H          5.1503551599        0.2675089105       -2.2784576408
 H          4.3879876299       -0.0385932413        0.0676990690
 H          3.4218172302       -0.1275738235        2.9937666090
 H          2.7779293396       -2.3361613939        3.6278986772
 H          1.3732214990       -4.3059613430        3.1390403656
 H         -0.0814099712       -4.3300281109        1.1525169257
 H         -1.1098766210       -3.2174110392       -0.5646070732
 C          0.4303540790       -2.9095369184       -1.9617142331
 C          0.1854016690       -2.4219698272       -3.3556485227
 C          1.4886705391       -2.1268869381       -2.6755220325
 H          2.3703004989       -2.6579167081       -3.0033798230
 H          1.6670571594       -1.1100661284       -2.3689773217
 H          0.1597231987       -3.1424760765       -4.1598530133
 H         -0.5039004008       -1.5994041368       -3.4806564219
 H          0.6365336187       -3.9728928486       -1.8700657340
