  62
        -98.94166747
 C         -1.9954434597       -1.5301883403        0.0339148701
 C         -2.2114847399       -0.5762819899       -0.9914641194
 C         -3.5348944300        0.0655577799       -0.9970465891
 C         -4.4449636299       -0.2495983807       -0.0591685592
 C         -5.8315700400        0.3214901190        0.0620614111
 C         -5.8881715703        1.6652231086        0.8018361917
 C         -5.3459441105        2.8625792291        0.0200503022
 H         -5.8214727505        2.9003198194       -0.9605950077
 H         -5.6461891406        3.7614766188        0.5622098527
 C         -3.8197235105        2.8743474694       -0.1454627178
 H         -3.3686453304        2.1917704292        0.5790188819
 H         -3.4368070407        3.8731135194        0.0771717226
 C         -3.3331476405        2.5039545602       -1.5464879080
 H         -3.6744412906        3.2546823404       -2.2627680976
 H         -2.2402467805        2.5159426804       -1.5442086280
 C         -3.7921916602        1.1220221303       -2.0296381186
 H         -4.8497767803        1.1480767702       -2.2906595286
 H         -3.2167181602        0.8632678308       -2.9218248387
 H         -5.3437431102        1.5687408083        1.7442058916
 H         -6.9356449803        1.8609346183        1.0423855018
 H         -6.2725599701        0.4313564393       -0.9290557588
 H         -6.4191140999       -0.4063973414        0.6256673408
 O         -4.1994383297       -1.1682652611        0.9120772704
 C         -2.9787756596       -1.8168506709        0.9862446200
 O         -2.8906398894       -2.6277817414        1.9299900796
 H          0.1220568900        0.2374997702       -0.2212718891
 C          0.6245376601       -0.2116292701        0.6228497806
 C          0.3183301003       -1.5181234603        0.9796919600
 C          0.9814616505       -2.0839969507        2.0617990898
 C          1.9229477004       -1.3572719209        2.7705489301
 C          2.2239435301       -0.0554132306        2.4130526207
 C          1.5684420400        0.5181185497        1.3307417709
 N          1.8737548897        1.8405422200        0.9492706715
 S          3.4757659096        2.1681409604        0.5792739016
 O          4.2478197897        2.1776815500        1.7960971116
 O          3.4529628594        3.4013605608       -0.1731430678
 C          3.9823622799        0.8102055310       -0.4580402490
 C          3.6718815298        0.8621933816       -1.8025287290
 C          3.9925645900       -0.2190639780       -2.6070398495
 C          4.6021391702       -1.3342108582       -2.0525931000
 C          4.9057916503       -1.3713172987       -0.7006152500
 C          4.5948573601       -0.2898504992        0.1081548005
 H          4.8213799901       -0.2768849196        1.1613162805
 H          5.3795116104       -2.2399198188       -0.2727686004
 H          4.8396729503       -2.1794949078       -2.6784605804
 H          3.7569528299       -0.1917394676       -3.6586952095
 H          3.1969556696        1.7470318617       -2.1955452185
 H          1.2794617196        2.1797725702        0.2060440317
 H          2.9549804500        0.5256673892        2.9517382109
 H          2.4257564005       -1.8079281512        3.6125639798
 H          0.7439723207       -3.0960838709        2.3550514793
 C         -0.6973439996       -2.3062409002        0.1937325597
 H         -0.9661013894       -3.1891075505        0.7944985293
 C         -0.1473960095       -2.8166250694       -1.1327349005
 C          1.0767380404       -2.2685751789       -1.7956290503
 C          1.1175885606       -3.6231229392       -1.1595198609
 H          1.1605591008       -4.4958712989       -1.7928863813
 H          1.6616431407       -3.7197137695       -0.2321697610
 H          1.0686341603       -2.1959685784       -2.8721372303
 H          1.6068065802       -1.4629812090       -1.3127762000
 H         -0.9446035595       -3.1411491193       -1.7941789007
 O         -1.3624538600       -0.2560530193       -1.8628882593
