  62
        -98.94574508
 C         -2.4896228020       -1.1312198541       -0.0363909905
 C         -3.0746161258       -0.2329881328        0.8877308345
 C         -3.5792698995        1.0253755643        0.3295291414
 C         -3.4650130568        1.2625787573       -0.9901049131
 C         -3.9379609671        2.4955351236       -1.7110455347
 C         -2.9352942793        3.6571580186       -1.6721848703
 C         -2.8071246867        4.3595149782       -0.3198610180
 H         -2.2425848276        5.2786263982       -0.4884479850
 H         -3.7975387068        4.6444667483        0.0368058155
 C         -2.0887502521        3.5332009012        0.7565154769
 H         -1.3527922328        4.1594938486        1.2670866911
 H         -1.5303647879        2.7217006455        0.2809772265
 C         -3.0120851522        2.9498163412        1.8270669402
 H         -2.4045573160        2.3575518143        2.5167061321
 H         -3.4691224750        3.7624042023        2.3960076243
 C         -4.1264330927        2.0473467145        1.2800339830
 H         -4.5780387965        1.5140294777        2.1200850684
 H         -4.8928126461        2.6495765636        0.7934040690
 H         -3.2595756563        4.3938403965       -2.4107918326
 H         -1.9551847144        3.2845844560       -1.9813497497
 H         -4.0897207816        2.2073236986       -2.7533273692
 H         -4.8920549658        2.8216927215       -1.2964037515
 O         -2.8992026183        0.3728797538       -1.8469524947
 C         -2.3608632811       -0.8227100805       -1.3912027254
 O         -1.8212502064       -1.5096039336       -2.2781906623
 H         -0.3574013404       -0.5406095753        1.5359662826
 C          0.2424727173       -1.2348881745        0.9592388591
 C         -0.3810095623       -2.3164968687        0.3468593429
 C          0.3977177003       -3.1971914165       -0.3902206535
 C          1.7600377675       -2.9840977410       -0.5211832097
 C          2.3719735142       -1.8977393870        0.0767861807
 C          1.6020000309       -1.0155384678        0.8241832912
 N          2.2170490466        0.1071249522        1.4259032624
 S          2.7608007200        1.2695170872        0.3319953990
 O          2.8259247790        2.5037170634        1.0847987151
 O          1.9473728479        1.2896978247       -0.8636081220
 C          4.4123356956        0.7294320404       -0.0509232696
 C          4.7362611621        0.3613950699       -1.3417292965
 C          6.0277574779       -0.0648145359       -1.6114527525
 C          6.9653171383       -0.1156517850       -0.5911104762
 C          6.6235983003        0.2590976096        0.7000585624
 C          5.3351625923        0.6875362696        0.9762419035
 H          5.0269761200        0.9922791939        1.9623394841
 H          7.3554092495        0.2176759179        1.4905571549
 H          7.9684347481       -0.4499329327       -0.8039017267
 H          6.2948628104       -0.3569973209       -2.6143252670
 H          3.9707840748        0.4103285106       -2.0998308861
 H          1.6166354898        0.5584724850        2.1031734262
 H          3.4309713432       -1.7270477379       -0.0287358499
 H          2.3526323988       -3.6728153153       -1.1036526069
 H         -0.0638070531       -4.0408686658       -0.8759725423
 C         -1.8798957112       -2.4211513602        0.4878958168
 H         -2.1209906700       -2.4408710864        1.5609356721
 C         -2.4834042808       -3.6403861140       -0.1718504674
 C         -2.4157303302       -4.9687780445        0.5189637327
 C         -3.7229687297       -4.2442323030        0.4145797263
 H         -4.4756423906       -4.6281585780       -0.2573922072
 H         -4.1272914534       -3.7846484996        1.3047284709
 H         -2.2723929230       -5.8548724872       -0.0802841618
 H         -1.9319290134       -5.0047950389        1.4832271738
 H         -2.4020055688       -3.6176155181       -1.2520780534
 O         -3.1623301659       -0.4683193222        2.1241248485
