  62
        -98.94495776
 C         -1.8857319402       -0.7192378986       -0.1601114096
 C         -2.4511243804       -0.0894870878        0.9737646899
 C         -3.5180785202        0.8833844122        0.7046766791
 C         -3.8598000798        1.1476377215       -0.5699303512
 C         -4.9645271195        2.0745520115       -0.9853506220
 C         -6.2942873196        1.3218151217       -1.1337923319
 C         -6.6380685401        0.4321404924        0.0609322685
 H         -5.9095130602       -0.3794889777        0.1221400291
 H         -7.6097501101       -0.0231106376       -0.1421731215
 C         -6.6900748903        1.1683468432        1.4069519481
 H         -7.5810258205        0.8445115836        1.9490377380
 H         -6.7860939701        2.2416921831        1.2389234274
 C         -5.4923858806        0.9036822135        2.3210587085
 H         -5.3368986608       -0.1737635265        2.4178223692
 H         -5.7314405508        1.2904806341        3.3153044282
 C         -4.1679598304        1.5446864730        1.8876464785
 H         -3.4611696706        1.4387147133        2.7160852888
 H         -4.3187207701        2.6099161629        1.7001155279
 H         -6.2373609695        0.6919810811       -2.0245779616
 H         -7.0895706594        2.0538396017       -1.2858037225
 H         -4.6983740192        2.5175051309       -1.9466450322
 H         -5.0644541796        2.8677635919       -0.2468219825
 O         -3.2594635596        0.5596269008       -1.6358189007
 C         -2.2643708198       -0.3925199993       -1.4625921299
 O         -1.8068399096       -0.8562085799       -2.5232314595
 O         -2.0755501808       -0.3250626873        2.1546470001
 C         -0.8003849105       -1.7605026987        0.0437594213
 C          0.4884786198       -1.3066316393       -0.5966272286
 C          1.2748148699       -2.1230442398       -1.3982195880
 C          2.4461896101       -1.6396919004       -1.9567922279
 C          2.8640649003       -0.3435398503       -1.7213480086
 C          2.0955601102        0.4751721003       -0.9023948192
 C          0.9245976000       -0.0114160192       -0.3428082593
 H          0.3261217499        0.6303149213        0.2921919502
 N          2.5187749204        1.7883866904       -0.6400693198
 S          4.1361099803        2.0453444003       -0.2988920196
 O          4.1639824203        3.2335909107        0.5251281098
 O          4.8867367307        2.1167356894       -1.5278946494
 C          4.6546530298        0.6198472607        0.6409862114
 C          5.6705099198       -0.1851832798        0.1674832121
 C          6.0401099094       -1.3003639694        0.9024543328
 C          5.3875662890       -1.5916614286        2.0900708728
 C          4.3708134090       -0.7710278482        2.5544300721
 C          3.9989681794        0.3464586715        1.8251198714
 H          3.2148476195        1.0055282918        2.1626331908
 H          3.8635710188       -0.9981757176        3.4784614621
 H          5.6719811387       -2.4624844084        2.6592795934
 H          6.8317571394       -1.9388664298        0.5450249734
 H          6.1483395701        0.0769027096       -0.7624050179
 H          1.9201805903        2.2969408008       -0.0068810803
 H          3.7623595105        0.0527086193       -2.1661529185
 H          3.0402207701       -2.2814850808       -2.5890722874
 H          0.9660426797       -3.1358964499       -1.5964206575
 H         -0.6408029108       -1.8038506781        1.1316951213
 C         -1.2730300506       -3.1177292688       -0.4326818681
 C         -0.7443151210       -4.3681455286        0.2020917228
 C         -2.1533375910       -3.9322053382        0.4658031321
 H         -2.9618941409       -4.4949886483        0.0238285022
 H         -2.3897645911       -3.5192144276        1.4357842218
 H         -0.5865736010       -5.2355633990       -0.4208457267
 H         -0.0237608412       -4.2584053683        0.9981311529
 H         -1.4925901203       -3.1322367694       -1.4942924981
