  62
        -98.94311405
 C          2.0548911463        1.3776444390        0.3287569584
 C          2.0618793673        0.2410949988        1.1798541749
 C          3.0512247195       -0.7958625851        0.8743568847
 C          3.8948246848       -0.6241509938       -0.1595080293
 C          4.9934340615       -1.5652117535       -0.5738330873
 C          4.5271052825       -2.7160753595       -1.4755519678
 C          3.7026417446       -3.7960929312       -0.7744523252
 H          3.6297860922       -4.6402462566       -1.4630946631
 H          4.2382784836       -4.1434516174        0.1095481238
 C          2.2856741360       -3.3540091191       -0.3823944973
 H          2.0201833225       -2.4492773502       -0.9339596977
 H          1.5736745704       -4.1283989116       -0.6744610309
 C          2.0900564546       -3.0948392306        1.1115262037
 H          2.2166001316       -4.0273508409        1.6658547840
 H          1.0671737761       -2.7421880217        1.2667281033
 C          3.0436930600       -2.0467825712        1.6997891836
 H          2.6902717936       -1.7835249558        2.6996668935
 H          4.0509075217       -2.4551797144        1.7812481772
 H          3.9518911281       -2.2985446124       -2.3051611302
 H          5.4210349316       -3.1843838878       -1.8940261652
 H          5.7212828360       -0.9678295604       -1.1272403426
 H          5.4805929135       -1.9710062053        0.3133820583
 O          3.8526080465        0.4731532748       -0.9574434893
 C          2.9163367634        1.4811369413       -0.7639582867
 O          2.9787644628        2.3824825199       -1.6221858607
 O          1.2802134437        0.1092947185        2.1597311517
 C          1.0278144798        2.4511122304        0.6489961783
 C         -0.2292913655        2.2116583401       -0.1522237244
 C         -0.2552434505        2.3789010810       -1.5326194968
 C         -1.4144806842        2.1278661524       -2.2442567750
 C         -2.5669641834        1.7106786983       -1.6003946627
 C         -2.5476544380        1.5288310777       -0.2236052311
 C         -1.3816878659        1.7805939363        0.4889908819
 H         -1.3647864897        1.6260580228        1.5593485242
 N         -3.7140796167        1.1229879031        0.4510268948
 S         -4.5471576789       -0.2416666623       -0.0369940717
 O         -5.0078092640       -0.0591784109       -1.3895254367
 O         -5.5651457521       -0.4386732475        0.9683920368
 C         -3.3659641241       -1.5757714337        0.0328016456
 C         -3.3371985421       -2.3775030451        1.1565195919
 C         -2.4050315782       -3.3995818526        1.2282256647
 C         -1.5149155898       -3.5942259449        0.1835602544
 C         -1.5483055001       -2.7729285459       -0.9328874411
 C         -2.4826083666       -1.7527544401       -1.0135713250
 H         -2.5427419441       -1.1020767055       -1.8707327426
 H         -0.8493924270       -2.9226145877       -1.7403642699
 H         -0.7915027097       -4.3922139817        0.2397879151
 H         -2.3730710819       -4.0385473597        2.0960422194
 H         -4.0527947339       -2.1955180904        1.9421654800
 H         -3.6126530705        1.1142361935        1.4559379184
 H         -3.4754817544        1.5127722884       -2.1459111476
 H         -1.4236253202        2.2627594028       -3.3155449435
 H          0.6445889989        2.6889108281       -2.0416144170
 H          0.7786933279        2.2992242774        1.7081468061
 C          1.5356328807        3.8679589261        0.4795917109
 C          0.8248405331        4.9788282532        1.1907922714
 C          2.1904443974        4.5541196705        1.6390512825
 H          3.0268368301        5.2081382180        1.4436088059
 H          2.2753081043        4.0037213439        2.5648762937
 H          0.7198686500        5.9276640265        0.6877238268
 H         -0.0172816673        4.7169018010        1.8136430866
 H          1.9338153085        4.0742341924       -0.5045032011
