  62
        -98.94075578
 C          2.0240201237        1.3383163112        0.3688863408
 C          2.4960023532        0.6300735387       -0.7642179085
 C          3.7001470633       -0.1899114239       -0.5506842700
 C          4.2677944875       -0.2340297917        0.6674202938
 C          5.4627809441       -1.0660796046        1.0304443322
 C          5.0398359720       -2.4460093988        1.5533162452
 C          4.0205750771       -3.1579738489        0.6634732135
 H          3.8196538214       -4.1325390645        1.1139872683
 H          3.0813768114       -2.5995834983        0.6767354295
 C          4.4721847940       -3.3506915717       -0.7910170831
 H          5.5546153598       -3.2367728762       -0.8607024129
 H          4.2331354498       -4.3708160342       -1.0989128534
 C          3.7983201278       -2.4134629476       -1.7952609271
 H          2.7133258800       -2.4547978715       -1.6662089654
 H          4.0202115460       -2.7786241025       -2.8015920755
 C          4.2354456549       -0.9443024465       -1.7349595342
 H          5.3249532860       -0.8823813482       -1.7730543539
 H          3.8302546372       -0.4429175442       -2.6188221026
 H          5.9324528324       -3.0659629045        1.6539756656
 H          4.5996347321       -2.3208383989        2.5454188839
 H          6.1009936842       -1.1770413390        0.1560919075
 H          6.0194826318       -0.5465650602        1.8122881385
 O          3.7748447966        0.4430516818        1.7360285082
 C          2.6338136144        1.2208446979        1.6202185890
 O          2.2611519858        1.7431819920        2.6901327789
 H         -0.2187894784       -0.1581897344        0.9553871673
 C         -0.7112043656        0.2304398566        0.0714986359
 C         -0.3175830254        1.4657921371       -0.4306133255
 C         -0.9594208349        1.9554458796       -1.5595165830
 C         -1.9475773000        1.2114289217       -2.1815274483
 C         -2.3209425688       -0.0260235492       -1.6922480558
 C         -1.6936781254       -0.5198397274       -0.5548008584
 N         -2.0719939135       -1.7721866316       -0.0421005809
 S         -3.7039055707       -2.1292471010        0.0438047833
 O         -3.8264077577       -3.0743205043        1.1318977794
 O         -4.1710769789       -2.5873689835       -1.2408087275
 C         -4.5018404885       -0.5884111700        0.4600836512
 C         -4.1366729061        0.0366854852        1.6360249963
 C         -4.7229103395        1.2489373732        1.9608765934
 C         -5.6603774449        1.8125638316        1.1085858045
 C         -6.0208458288        1.1697379215       -0.0652331402
 C         -5.4356516263       -0.0420211467       -0.3963282681
 H         -5.6838541062       -0.5742448875       -1.3001163139
 H         -6.7517149899        1.6092213173       -0.7246344535
 H         -6.1122826694        2.7581117910        1.3634161041
 H         -4.4436411987        1.7497610355        2.8740449286
 H         -3.4086052433       -0.4296636181        2.2806572960
 H         -1.5910031209       -2.0350494412        0.8048401577
 H         -3.0720501968       -0.6258172307       -2.1801097812
 H         -2.4283134564        1.5978688904       -3.0671314452
 H         -0.6663890040        2.9063744273       -1.9720668720
 C          0.7758156392        2.2027032251        0.3042516846
 H          0.4560002819        2.3132576486        1.3538600378
 C          1.0162251878        3.6102689289       -0.2208655814
 C          2.3514825888        4.2738617526       -0.0674992197
 C          1.8599639810        3.8849629066       -1.4278044284
 H          1.5492241088        4.6700323649       -2.1017228919
 H          2.3160723799        3.0416759554       -1.9210389345
 H          2.3759991071        5.3212983546        0.1934527620
 H          3.1510255903        3.6964593642        0.3740565771
 H          0.1485746571        4.2469230991       -0.0781831400
 O          1.9527084321        0.6695020713       -1.8971934204
