  62
        -98.93391966
 C         -2.3073015553       -0.8237013521        0.0555373813
 C         -3.1125181823       -0.1692192551        1.0233226451
 C         -4.0091803253        0.8931641381        0.5409367797
 C         -4.0226130681        1.1942535028       -0.7683651454
 C         -4.8184833505        2.2572521990       -1.4837175599
 C         -6.2849240298        2.4426072650       -1.0720447527
 C         -7.0068673974        1.1553525746       -0.6477362475
 H         -6.4000700013        0.2846410936       -0.9024145692
 H         -7.9427147210        1.0735987790       -1.2036955968
 C         -7.3431213001        1.1236299108        0.8451077720
 H         -8.1461295855        0.4009139395        1.0087338753
 H         -7.7218510601        2.1048130733        1.1395248957
 C         -6.1895091786        0.7348655570        1.7689074325
 H         -5.9504531211       -0.3239725557        1.6381370517
 H         -6.5273986861        0.8610547496        2.8002278281
 C         -4.8892163146        1.5321984024        1.5764987083
 H         -4.3282584944        1.4912213587        2.5140036834
 H         -5.0963496759        2.5732513668        1.3411334306
 H         -6.7985680343        2.8829482228       -1.9284002842
 H         -6.3474337071        3.1681820085       -0.2623602074
 H         -4.2917071219        3.2092992622       -1.3697982749
 H         -4.7665468881        1.9867184990       -2.5412423542
 O         -3.2304523253        0.5445929828       -1.6660407379
 C         -2.3567602459       -0.4680335741       -1.2914219953
 O         -1.7073467741       -0.9379739855       -2.2456956250
 H          0.2008996086       -0.4429405016       -1.0400060970
 C          0.6725511301       -0.6508184610       -0.0903281123
 C         -0.0099152577       -1.4009790598        0.8575076468
 C          0.6178771165       -1.6724133078        2.0671966601
 C          1.8962431361       -1.2041614497        2.3173928999
 C          2.5717689607       -0.4558319176        1.3702763848
 C          1.9532462804       -0.1788063047        0.1579108260
 N          2.6265799986        0.5906109319       -0.8087388500
 S          4.1609089661        0.0805688397       -1.2691487366
 O          4.3575263277        0.6092876973       -2.6008988391
 O          4.3085551885       -1.3483425789       -1.1151795040
 C          5.2450422849        0.9318152180       -0.1419656041
 C          6.1421078962        0.2161955315        0.6265846655
 C          6.9797708454        0.9030061776        1.4918428858
 C          6.9059624177        2.2851417102        1.5722561334
 C          6.0015508431        2.9892290011        0.7909793024
 C          5.1625739036        2.3090220003       -0.0770561902
 H          4.4486685019        2.8174241038       -0.7035590947
 H          5.9469511544        4.0640118241        0.8560626869
 H          7.5572937930        2.8172820553        2.2474493309
 H          7.6841069470        0.3577955395        2.0993223089
 H          6.1590753572       -0.8580682075        0.5346730018
 H          2.0627115176        0.7809022732       -1.6253303132
 H          3.5666720651       -0.0872245074        1.5593405743
 H          2.3715101626       -1.4218463757        3.2615105476
 H          0.0929062844       -2.2460971604        2.8168144431
 C         -1.3933865004       -1.9237893219        0.5654484816
 H         -1.8374704760       -2.2304897048        1.5256911860
 C         -1.3775503422       -3.1506512024       -0.3374201032
 C         -0.1977960642       -3.5684009401       -1.1582874979
 C         -0.5835718902       -4.3625708257        0.0514183398
 H         -1.0248207800       -5.3379466928       -0.0862503014
 H          0.0526876682       -4.2814959900        0.9197946510
 H          0.7016970979       -2.9734420161       -1.1140594842
 H         -0.3919495558       -3.9785118435       -2.1378742049
 H         -2.3509918551       -3.3326085773       -0.7825073494
 O         -3.0798004064       -0.4621299769        2.2477496577
