  62
        -98.93636032
 C         -1.0007499224       -1.5479705763        0.7693295334
 C         -1.6338674683       -1.3065160881       -0.4737849815
 C         -2.6844450749       -0.2695909249       -0.4832559717
 C         -2.9107863323        0.4540725129        0.6255569820
 C         -3.9356821283        1.5348110695        0.8678046023
 C         -4.2446263915        2.5046132445       -0.2777966791
 C         -3.0283945039        2.9029961520       -1.1259187962
 H         -2.9734508136        3.9913789740       -1.1787893833
 H         -2.1129386891        2.5478714528       -0.6511919922
 C         -3.0891032685        2.3637246634       -2.5559552185
 H         -2.4269888750        2.9610624880       -3.1867864526
 H         -4.1044264727        2.4845233885       -2.9400396002
 C         -2.6659836793        0.9041928595       -2.7088420870
 H         -2.8340962324        0.6091092725       -3.7474078507
 H         -1.5938396848        0.8047108887       -2.5179476694
 C         -3.3989574417       -0.0891726792       -1.7926449682
 H         -4.4362693969        0.2022395733       -1.6462986461
 H         -3.3809604188       -1.0681001671       -2.2797000678
 H         -5.0099821048        2.0767486481       -0.9233335531
 H         -4.6822836525        3.3952997523        0.1765110573
 H         -3.5591048801        2.0931872074        1.7283288034
 H         -4.8642787589        1.0501654201        1.1851741189
 O         -2.2018324664        0.2557343191        1.7746415892
 C         -1.2512993389       -0.7428490139        1.8813330878
 O         -0.6971255555       -0.8034203761        2.9979481265
 O         -1.3624791001       -1.9295381425       -1.5313240871
 C          0.0939044526       -2.5911966310        0.9172893025
 C          1.1167171393       -2.3864562258       -0.1734854439
 C          1.5001390417       -3.3574111816       -1.0874152002
 C          2.4462882174       -3.0645474082       -2.0550347223
 C          3.0376424095       -1.8162776374       -2.1199488432
 C          2.6602624214       -0.8367870887       -1.2072000325
 C          1.7034151825       -1.1293971151       -0.2518043158
 H          1.4038980061       -0.3682810630        0.4534326248
 N          3.2172227820        0.4499715732       -1.2457212925
 S          3.5071347869        1.2856564509        0.1746181615
 O          4.5143333764        2.2608218040       -0.1874722256
 O          3.8510158520        0.3914595004        1.2553477330
 C          1.9903758984        2.1484654849        0.5276723992
 C          1.5406349253        3.0761097762       -0.3917391413
 C          0.3846234412        3.7865403126       -0.1149890940
 C         -0.3016075224        3.5580181517        1.0692279422
 C          0.1604706394        2.6221477216        1.9806729582
 C          1.3201774729        1.9124272504        1.7110647684
 H          1.7024200888        1.1743923246        2.4001435764
 H         -0.3763944413        2.4258193716        2.8955432332
 H         -1.2016147107        4.1123441407        1.2844992086
 H          0.0186173282        4.5139355244       -0.8215387019
 H          2.1054939761        3.2297685838       -1.2961211772
 H          3.9574400117        0.5784252516       -1.9197784176
 H          3.7784434090       -1.5949646015       -2.8733232831
 H          2.7313352777       -3.8233893449       -2.7681520783
 H          1.0438316397       -4.3332231412       -1.0580220987
 H          0.5874150914       -2.3454104767        1.8733336015
 C         -0.3926107792       -4.0258159540        1.0461252885
 C         -1.7506826279       -4.3300101274        1.6038169414
 C         -1.4519357210       -4.6110714012        0.1633678885
 H         -1.3459793612       -5.6417605216       -0.1429896091
 H         -1.8838244939       -3.9726540773       -0.5896985176
 H         -1.8522727886       -5.1622810158        2.2842301634
 H         -2.3909109470       -3.4918649934        1.8391688211
 H          0.4087995115       -4.6933772906        1.3493987806
