  62
        -98.93566370
 C          1.6777628079        0.3952203085       -0.2109798379
 C          2.7883494344        1.1915579310        0.1611879741
 C          4.1321827177        0.6730859569       -0.1594540349
 C          4.2325016279       -0.5273080968       -0.7591311148
 C          5.4822288607       -1.2739685557       -1.1424003487
 C          6.1757165935       -1.9257107053        0.0654881361
 C          6.2614069988       -1.0470429765        1.3110014829
 H          5.2551850619       -0.7409502649        1.6030333038
 H          6.6614351674       -1.6606029794        2.1226015280
 C          7.1498632860        0.1875181399        1.1780440369
 H          7.1787714703        0.6734745331        2.1566882455
 H          8.1668876379       -0.1280204527        0.9344503450
 C          6.7038844411        1.2247095544        0.1456985748
 H          6.9440122231        0.9004547288       -0.8633322921
 H          7.2855784129        2.1335713487        0.3258490835
 C          5.2347263281        1.6254368205        0.2366851190
 H          5.0815649018        2.5246553874       -0.3726178706
 H          5.0102149115        1.9334758259        1.2641613052
 H          7.1784290680       -2.2327838656       -0.2364873064
 H          5.6133073688       -2.8241459879        0.3314149878
 H          5.1770812948       -2.0619329012       -1.8345743503
 H          6.1629043576       -0.6139454844       -1.6720712975
 O          3.1372558676       -1.2776166163       -1.0676836378
 C          1.8431160568       -0.8549747682       -0.8073031449
 O          0.9685564308       -1.6732709080       -1.1471913026
 O          2.6678123755        2.2982072308        0.7521468436
 C          0.2944651605        0.9287960901        0.1137278242
 C         -0.5529062850       -0.1434597453        0.7481103914
 C         -0.1840349734       -0.6390398655        1.9966910548
 C         -0.9263168440       -1.6268985311        2.6127828282
 C         -2.0685973194       -2.1246608500        2.0095953318
 C         -2.4448163492       -1.6374365429        0.7646033451
 C         -1.6873862304       -0.6551217544        0.1400794586
 H         -1.9745944179       -0.3322085636       -0.8457702213
 N         -3.5984948933       -2.1139586273        0.1283437664
 S         -4.5270611664       -1.0866926889       -0.7999091226
 O         -5.8535568059       -1.6661523337       -0.7578977403
 O         -3.9602392628       -0.9244789562       -2.1147751085
 C         -4.5195999368        0.4768994066        0.0628403145
 C         -4.8774232882        0.4998825598        1.3964098136
 C         -4.8658336256        1.7085018145        2.0731876444
 C         -4.5025737945        2.8696929561        1.4083400926
 C         -4.1557065089        2.8324002948        0.0669607935
 C         -4.1622111115        1.6250477686       -0.6136396842
 H         -3.8919627077        1.5491823035       -1.6549812332
 H         -3.8757461049        3.7367951793       -0.4498214936
 H         -4.4901308216        3.8095018880        1.9373521815
 H         -5.1375603819        1.7414444842        3.1158707877
 H         -5.1621728467       -0.4172541903        1.8853787872
 H         -4.1559230948       -2.7612817466        0.6647855040
 H         -2.6536284526       -2.8939571900        2.4900556863
 H         -0.6209777312       -2.0083534285        3.5754575351
 H          0.7048612182       -0.2460323251        2.4712285485
 H          0.4771893286        1.7082490241        0.8725292287
 C         -0.4006077996        1.6164169483       -1.0512801700
 C          0.3795758398        2.3219599818       -2.1183038410
 C         -0.3695270429        1.0662151018       -2.4443516648
 H         -1.2655638853        1.1344680961       -3.0449456541
 H          0.1892798319        0.1585853436       -2.6122574865
 H          0.0025627367        3.2606619558       -2.4951872603
 H          1.4575171453        2.2724232363       -2.0667363204
 H         -1.3264108908        2.0906431669       -0.7391784204
