  62
        -98.93440204
 C          2.2091222858       -1.1013584383       -0.6667531185
 C          2.2151418037       -0.1560623943        0.3877710375
 C          3.0748594202        1.0286914333        0.1966550092
 C          3.7481787073        1.1843991770       -0.9549081422
 C          4.6457605938        2.3207155356       -1.3775534102
 C          5.6211575396        2.8817312900       -0.3339883937
 C          6.1690318001        1.8510716070        0.6639325758
 H          5.9225220245        0.8410593814        0.3321968679
 H          7.2574347138        1.9283347970        0.6914652416
 C          5.6474158460        2.0618033245        2.0873971443
 H          6.3257741604        1.5674900751        2.7868003529
 H          5.6667124127        3.1302322677        2.3129464789
 C          4.2446564778        1.5194033486        2.3588009674
 H          4.2644645496        0.4261432961        2.3581935034
 H          3.9499812051        1.8329246479        3.3631147765
 C          3.1590576408        1.9668842715        1.3660413686
 H          2.1907027984        1.9049601628        1.8712053639
 H          3.3153330219        2.9947832336        1.0471951829
 H          5.1401560249        3.6886396033        0.2171672123
 H          6.4488582878        3.3293772865       -0.8867610857
 H          5.2066371250        1.9350655787       -2.2325341046
 H          4.0129889364        3.1325872297       -1.7486254149
 O          3.6596254447        0.2804887592       -1.9726457407
 C          2.8960573623       -0.8685495887       -1.8592084017
 O          2.9004995530       -1.5867817164       -2.8794854960
 H         -0.2906911774       -0.6571743398       -1.7155305551
 C         -0.7444778451       -1.1129527822       -0.8425584460
 C         -0.0142609827       -2.0454306247       -0.1151801768
 C         -0.5998664746       -2.6138212932        1.0074877650
 C         -1.8791754682       -2.2480874253        1.3890038765
 C         -2.6010573434       -1.3187990489        0.6632847875
 C         -2.0227527094       -0.7400695516       -0.4590729750
 N         -2.7503128882        0.1991199807       -1.2126201057
 S         -3.4747110125        1.4813819047       -0.4044506581
 O         -3.6019342197        2.5242428486       -1.4003435464
 O         -2.7621969581        1.8294589266        0.8025809317
 C         -5.0960945986        0.8626936547       -0.0048600417
 C         -5.5291411425        0.8610678888        1.3065652948
 C         -6.7959812848        0.3763200888        1.5931686265
 C         -7.6030176468       -0.0941060351        0.5686521537
 C         -7.1545822909       -0.0818213596       -0.7438583592
 C         -5.8896770449        0.4019566199       -1.0371683628
 H         -5.5044518115        0.4326923677       -2.0426520404
 H         -7.7853027208       -0.4476308791       -1.5379883681
 H         -8.5875085627       -0.4722664103        0.7944920252
 H         -7.1463244057        0.3668880582        2.6127750474
 H         -4.8636875319        1.2313216205        2.0703585002
 H         -2.2527329748        0.5352665519       -2.0246597264
 H         -3.5946837870       -1.0279280357        0.9624462518
 H         -2.3198111114       -2.6918532723        2.2687318352
 H         -0.0454582672       -3.3219104581        1.6007900401
 C          1.3780032337       -2.3716918367       -0.5987851337
 H          1.2954906588       -2.7089154347       -1.6456673956
 C          2.0358317853       -3.5087983676        0.1686685049
 C          3.5281022508       -3.6084240011        0.2698597842
 C          2.7133050372       -3.3024723611        1.4887405919
 H          2.6125844591       -4.0709720153        2.2413035227
 H          2.7332886902       -2.3011867928        1.8882526496
 H          3.9839579581       -4.5833535894        0.1838088224
 H          4.1135943244       -2.8134647239       -0.1696247802
 H          1.5027529298       -4.4451716859        0.0359264669
 O          1.5388412529       -0.2761220781        1.4407117675
