  62
        -98.94117890
 C         -0.7425406838       -1.4573068662       -0.0361203229
 C         -1.7847435159       -1.2803401472        0.9015743208
 C         -2.6454181221       -0.1083463076        0.6956914335
 C         -2.3904922671        0.7307116807       -0.3241620874
 C         -3.1320941669        2.0008002231       -0.6503935786
 C         -4.6081521963        1.8451153405       -1.0647505942
 C         -5.6094522854        1.9981021575        0.0867135628
 H         -6.4703631786        2.5678942548       -0.2688856896
 H         -5.1474349112        2.5902097516        0.8778301952
 C         -6.1508848222        0.6924244520        0.6763972946
 H         -6.9130681438        0.2873514571        0.0068853399
 H         -6.6388230199        0.9303648230        1.6241147705
 C         -5.1184864064       -0.4097002583        0.9145115237
 H         -4.8456481822       -0.8705548320       -0.0377645720
 H         -5.5875721504       -1.1931112036        1.5131511078
 C         -3.8248381930        0.0592106762        1.6088013888
 H         -3.6276593030       -0.5587550805        2.4875152822
 H         -3.9132235158        1.0949089629        1.9347837038
 H         -4.7455256227        0.8867714913       -1.5644529122
 H         -4.8135798739        2.6258705855       -1.7987195434
 H         -3.0641171884        2.6748535199        0.2071243817
 H         -2.5793677217        2.4532022222       -1.4755201366
 O         -1.3603863705        0.5367219694       -1.1920735091
 C         -0.5121704139       -0.5533239981       -1.0732177567
 O          0.3876382873       -0.6022868829       -1.9316446135
 H          1.1055942515       -0.4025372897        1.2749826369
 C          1.9096809859       -1.0013147258        0.8730322128
 C          1.6261056295       -2.1975331197        0.2280002137
 C          2.6859373250       -2.9539106804       -0.2592619115
 C          3.9894357226       -2.5137190226       -0.1114634581
 C          4.2646824739       -1.3079940825        0.5070696795
 C          3.2114175188       -0.5453899476        0.9992266232
 N          3.4462077615        0.6881139195        1.6284122170
 S          2.3913443154        1.9604330508        1.4218063963
 O          3.1578693681        3.1196451245        1.8347250098
 O          1.1718949742        1.7355400833        2.1599610012
 C          2.0326628973        2.1103792672       -0.3199276386
 C          2.9547849972        1.7217225550       -1.2696785744
 C          2.6619363737        1.9237356855       -2.6083005777
 C          1.4693767292        2.5250943137       -2.9740353267
 C          0.5597416660        2.9221486492       -2.0083464511
 C          0.8399413018        2.7090102165       -0.6693231839
 H          0.1491049647        2.9815225467        0.1137142056
 H         -0.3702324447        3.3878792632       -2.2933542685
 H          1.2429493979        2.6782836724       -4.0174186928
 H          3.3642849593        1.6055672566       -3.3617484654
 H          3.8787700818        1.2544785354       -0.9711950129
 H          4.4067430430        0.9988389221        1.6257623954
 H          5.2805170156       -0.9582174248        0.6117099865
 H          4.8020578549       -3.1125530718       -0.4932485055
 H          2.4895231261       -3.8894171797       -0.7568462408
 C          0.1892963113       -2.6433323235        0.1102274415
 H         -0.0971178571       -3.1266567147        1.0572691910
 C         -0.0329516918       -3.6264068820       -1.0230811678
 C          0.0926709554       -5.1019739614       -0.7911681213
 C         -1.2583396305       -4.4886836368       -0.9987782634
 H         -1.7769253747       -4.6765442190       -1.9269146106
 H         -1.9134125821       -4.3900406526       -0.1452484653
 H          0.3472158026       -5.4335398285        0.2042874170
 H          0.5006299585       -5.7152180024       -1.5805943345
 H          0.2800656679       -3.2279039137       -1.9816901423
 O         -1.9837660672       -2.0630734266        1.8715341465
