  62
        -98.94046099
 C         -1.4929818889       -1.2450557591       -0.0232573272
 C         -2.5728749888       -0.9529249006        0.8443220627
 C         -3.3475100017        0.2721140281        0.5679345648
 C         -2.9706487745        1.0555069558       -0.4594765801
 C         -3.6092537161        2.3299827188       -0.9439920000
 C         -4.9046547413        2.0808021760       -1.7333666707
 C         -5.8468672657        1.0516549670       -1.1146076172
 H         -6.6668053096        0.8870925312       -1.8187674136
 H         -5.3196439378        0.1021361515       -1.0053355479
 C         -6.4569849681        1.4514887335        0.2267378182
 H         -7.0143656426        2.3828324466        0.1035836953
 H         -7.1718776772        0.6720151127        0.5027798868
 C         -5.4719289551        1.6233321716        1.3850280951
 H         -4.9470698857        2.5722513119        1.3164584447
 H         -6.0588698965        1.6601622866        2.3074109045
 C         -4.4756160744        0.4798603396        1.5492245712
 H         -5.0227103027       -0.4691790425        1.5862517049
 H         -3.9967733338        0.5728311463        2.5314106340
 H         -5.4265710301        3.0321680528       -1.8493593911
 H         -4.6303599507        1.7234482347       -2.7290298235
 H         -3.7882458775        2.9994028192       -0.1079800150
 H         -2.8887909203        2.8120448286       -1.6086032259
 O         -1.9131217056        0.7421691163       -1.2604430749
 C         -1.1551721045       -0.4006936972       -1.0796596798
 O         -0.2370628607       -0.5344993909       -1.9116272015
 O         -2.8881509990       -1.6899068489        1.8164582052
 C         -0.6550516996       -2.4800637442        0.2677260853
 C          0.6921996812       -1.9928701100        0.7380058765
 C          0.8586023395       -1.6121566835        2.0669344045
 C          2.0471725064       -1.0539148742        2.4991750781
 C          3.0853736632       -0.8362921274        1.6094993512
 C          2.9217641017       -1.2012180366        0.2801380542
 C          1.7443019048       -1.8015111933       -0.1437503248
 H          1.6330272005       -2.0720231222       -1.1813592444
 N          3.9438616750       -0.9207907276       -0.6456601958
 S          4.5808854880        0.6269150827       -0.5926870476
 O          4.9777258795        0.9291425179       -1.9507223787
 O          5.6414652953        0.6694073242        0.3850565099
 C          3.2565862797        1.7074508511       -0.0697105557
 C          3.4801551393        2.5767392368        0.9794254521
 C          2.4585407224        3.4197081016        1.3855058132
 C          1.2317286953        3.3767430237        0.7413403809
 C          1.0241565485        2.5002573592       -0.3119759706
 C          2.0433351794        1.6581415031       -0.7268804540
 H          1.8793245938        0.9640828576       -1.5363375485
 H          0.0698520576        2.4514073011       -0.8129041693
 H          0.4318966296        4.0266519418        1.0599924774
 H          2.6195613232        4.1026305006        2.2040058380
 H          4.4456753702        2.5695008152        1.4588233317
 H          3.6989069491       -1.1685840188       -1.5938668584
 H          4.0122865479       -0.3821079105        1.9209825456
 H          2.1639435283       -0.7713203353        3.5341546087
 H          0.0345366283       -1.7444838990        2.7537553476
 H         -1.1550498556       -2.9829634062        1.1057006234
 C         -0.5942163263       -3.4308595881       -0.9084387278
 C         -0.0790940440       -4.8223851985       -0.6972195627
 C         -1.5365445268       -4.5943817653       -0.9598085812
 H         -1.9408841197       -4.8872309576       -1.9172615770
 H         -2.2288606978       -4.7140009194       -0.1394206986
 H          0.5192052229       -5.2754630016       -1.4729064448
 H          0.2197293686       -5.0948575990        0.3036649109
 H         -0.3652402287       -2.9433420670       -1.8481680104
