  62
        -98.94791991
 C         -0.9267973574       -1.0849034834        0.7054945264
 C         -1.4341227286       -0.8977305534       -0.6032091940
 C         -2.1616243643        0.3574393572       -0.8280273428
 C         -2.2799643265        1.2514913179        0.1698048397
 C         -2.9641789770        2.5897096781        0.0839236624
 C         -4.4858002781        2.5288145772        0.2761696508
 C         -5.2680711989        1.9326269529       -0.8945694949
 H         -6.3230482145        2.1530766243       -0.7200180789
 H         -4.9784794392        2.4364118152       -1.8173784093
 C         -5.1023057797        0.4156524944       -1.0610998741
 H         -6.0806047996       -0.0419098748       -1.2241125838
 H         -4.6977904629       -0.0105470945       -0.1403275661
 C         -4.2084446628        0.0005622413       -2.2299922461
 H         -4.6687055935        0.3072425425       -3.1719850210
 H         -4.1294940380       -1.0894976352       -2.2329279384
 C         -2.7874860137        0.5763102563       -2.1712724295
 H         -2.1688707833        0.0588135259       -2.9092613819
 H         -2.7984675328        1.6383658024       -2.4180769122
 H         -4.8345982312        3.5520560751        0.4333833888
 H         -4.6998280684        1.9603229042        1.1839388561
 H         -2.7336618624        3.0568036599       -0.8746509177
 H         -2.5433306192        3.2078304447        0.8799999742
 O         -1.7543363268        1.0447492504        1.4071317305
 C         -1.0637467339       -0.1205922062        1.7022736999
 O         -0.6223741780       -0.1747238379        2.8680723364
 O         -1.2910421998       -1.7338225542       -1.5330076202
 C         -0.1298895186       -2.3335675092        1.0357292351
 C          1.0815150760       -2.4113739978        0.1373969105
 C          1.5360676788       -3.5904565201       -0.4388125440
 C          2.6481604073       -3.5812460931       -1.2633086524
 C          3.3179600466       -2.4037020282       -1.5407652765
 C          2.8771996087       -1.2201990714       -0.9595168352
 C          1.7841539075       -1.2391773932       -0.1102859027
 H          1.4487674686       -0.3173982610        0.3427308786
 N          3.5309076048       -0.0010604777       -1.1962461423
 S          2.6250179007        1.3987036027       -1.3471545303
 O          1.3502497950        1.1569203409       -1.9807983099
 O          3.5085753143        2.3181407040       -2.0356123142
 C          2.3923254574        1.9731108401        0.3205756918
 C          1.1497321210        2.4416138066        0.6969798047
 C          0.9706335525        2.9093629735        1.9885051204
 C          2.0355808673        2.9041579781        2.8753470561
 C          3.2800606674        2.4377374402        2.4796082175
 C          3.4653527797        1.9682652065        1.1892701073
 H          4.4158739899        1.5945168567        0.8470032117
 H          4.1039067694        2.4344237205        3.1750281676
 H          1.8898470460        3.2617833027        3.8823328689
 H         -0.0008793988        3.2581432016        2.3002201813
 H          0.3444114724        2.4097934976       -0.0216736933
 H          4.2789428885       -0.0396464802       -1.8735074628
 H          4.1704835886       -2.3954270935       -2.2027554740
 H          2.9891979336       -4.5032097422       -1.7094522738
 H          1.0145288030       -4.5147629920       -0.2513301125
 H          0.2204717515       -2.2070138445        2.0710479175
 C         -1.0126851664       -3.5624046122        0.9650248193
 C         -0.7440650699       -4.7407103620        1.8510217194
 C         -1.9276607702       -3.8602770023        2.1135296692
 H         -2.9150164712       -4.2419929631        1.9011052963
 H         -1.8914357395       -3.1906224995        2.9607044368
 H         -0.9219621219       -5.7312045797        1.4600306593
 H          0.0931653751       -4.6762436160        2.5293671527
 H         -1.3883972805       -3.7456966547       -0.0351426870
