  62
        -98.94490763
 C         -1.9208745597       -0.1443144918        0.0740867770
 C         -2.9316291950       -0.9913005465        0.5887869027
 C         -4.2480586637       -0.3730038575        0.7785028859
 C         -4.4200133111        0.9304455331        0.4921750080
 C         -5.6963110363        1.7104863083        0.6563690366
 C         -6.6673966753        1.5746455725       -0.5245054449
 C         -7.3755147725        0.2235609067       -0.6328060578
 H         -7.8383152350       -0.0203231530        0.3239484176
 H         -8.1790456706        0.3409282564       -1.3626612148
 C         -6.4690784502       -0.9323916282       -1.0785878010
 H         -6.9738500213       -1.5126296783       -1.8543209410
 H         -5.5568339698       -0.5289767601       -1.5243044017
 C         -6.0861539282       -1.9043380467        0.0374795892
 H         -5.4143122309       -2.6581304250       -0.3807954901
 H         -6.9802976300       -2.4150665064        0.4016805524
 C         -5.3783061802       -1.2480232729        1.2300301069
 H         -6.0913616044       -0.6748460528        1.8220268658
 H         -4.9570118191       -2.0383074950        1.8561404331
 H         -7.4275687408        2.3511311838       -0.4118020424
 H         -6.1222202979        1.7758801229       -1.4496386532
 H         -6.1961497509        1.4068537101        1.5766355517
 H         -5.4087337513        2.7602241795        0.7464248277
 O         -3.4147418940        1.7179021700        0.0245473381
 C         -2.1486816740        1.2009613074       -0.2147873424
 O         -1.3357635986        2.0283183706       -0.6688920494
 O         -2.7398989468       -2.2016794942        0.8818947677
 C         -0.5397607097       -0.7240910086       -0.1753766578
 C          0.4873882183        0.0379055364        0.6233384943
 C          0.3102144116        0.1451618420        2.0015133157
 C          1.2040731949        0.8566654032        2.7761684130
 C          2.3029231602        1.4670447965        2.1957812261
 C          2.4933491922        1.3618311928        0.8241279007
 C          1.5917792558        0.6441386089        0.0474731667
 H          1.7567258235        0.5973633781       -1.0152694237
 N          3.5903514868        1.9863787946        0.2092077758
 S          4.5038458778        1.1768463812       -0.9315418660
 O          5.7168497397        1.9566875043       -1.0415895874
 O          3.7515810962        0.9935904421       -2.1456696322
 C          4.8619501220       -0.3975152503       -0.1743119838
 C          5.8902917923       -0.4610848839        0.7461135607
 C          6.1399512111       -1.6610570201        1.3913381955
 C          5.3545615472       -2.7697969783        1.1135152368
 C          4.3267085869       -2.6894294294        0.1869987184
 C          4.0748077449       -1.4927351064       -0.4656494021
 H          3.2884309230       -1.3935453110       -1.1951966582
 H          3.7183803861       -3.5530413733       -0.0299102428
 H          5.5456341123       -3.7030360399        1.6194510193
 H          6.9422077912       -1.7284330116        2.1083521910
 H          6.4834038576        0.4210635721        0.9251018534
 H          4.1842231503        2.5022130089        0.8418608111
 H          2.9987713368        2.0316129815        2.7975898681
 H          1.0479262883        0.9371173139        3.8413526879
 H         -0.5504128659       -0.3289846280        2.4534881789
 H         -0.5846311597       -1.7527184106        0.2123620365
 C         -0.2509472063       -0.7774449449       -1.6601472637
 C          0.6562875756       -1.8336925141       -2.2137110797
 C         -0.8185792300       -1.9023589312       -2.4708986857
 H         -1.1827633438       -1.6888643971       -3.4646884260
 H         -1.3943387445       -2.6505172442       -1.9457149005
 H          1.3121756254       -1.5724213633       -3.0313296482
 H          1.0733858796       -2.5451868107       -1.5168477110
 H         -0.2332222622        0.2042921518       -2.1210825878
