  62
        -98.94282267
 C          2.0619448849        0.7959337452        0.5639010966
 C          2.8261889045       -0.2665988462        1.1155131682
 C          4.2535472292       -0.2876242249        0.7815915334
 C          4.7713360703        0.6909413702        0.0176550147
 C          6.2134738862        0.8336566390       -0.3865025085
 C          6.6005024013        0.0069803346       -1.6202740845
 C          6.6952837798       -1.5014625896       -1.3881141292
 H          7.1818643415       -1.9308394245       -2.2661620409
 H          7.3404470342       -1.6963311471       -0.5308671658
 C          5.3420647769       -2.1974006070       -1.1850021188
 H          5.3049394822       -3.1057401938       -1.7906438818
 H          4.5393735937       -1.5456559795       -1.5378673704
 C          5.0476790703       -2.6049748206        0.2588608847
 H          5.7677654878       -3.3606457861        0.5808417474
 H          4.0513926320       -3.0538354606        0.2915515131
 C          5.0766654071       -1.4442767486        1.2620138508
 H          4.6436728359       -1.7929134384        2.2029162333
 H          6.1043048124       -1.1304512288        1.4448446008
 H          7.5765888539        0.3629378805       -1.9578012844
 H          5.8796173192        0.2084205972       -2.4159102651
 H          6.8569995375        0.5630892808        0.4510642500
 H          6.3680432337        1.8898038611       -0.6174679807
 O          4.0148593054        1.7050153437       -0.4727168050
 C          2.6470577328        1.7735348358       -0.2419420753
 O          2.1020336256        2.7413972439       -0.8077694197
 O          2.3349157515       -1.1541672469        1.8641494175
 C          0.5848130402        0.8135243739        0.9104309528
 C         -0.2807548658        0.1955371925       -0.1623067290
 C         -0.1726460179        0.5644803936       -1.4990832704
 C         -0.9986714611       -0.0032108592       -2.4520386750
 C         -1.9675779730       -0.9225929189       -2.0887523287
 C         -2.0940385193       -1.2860181033       -0.7542449074
 C         -1.2416550681       -0.7393533699        0.1951891411
 H         -1.3478653737       -1.0447218622        1.2249269849
 N         -3.0936323719       -2.1876394789       -0.3333256776
 S         -4.2410547149       -1.5848360942        0.7310404852
 O         -3.6102044988       -1.2210667338        1.9725520681
 O         -5.2672928708       -2.6002111310        0.7997214235
 C         -4.8730120212       -0.1357292245       -0.0968682129
 C         -4.1604989881        1.0450232549       -0.0224032126
 C         -4.6078893074        2.1407578451       -0.7437833569
 C         -5.7521948533        2.0395185246       -1.5199789998
 C         -6.4586813601        0.8477722804       -1.5803060554
 C         -6.0126498222       -0.2540188376       -0.8684997533
 H         -6.5299841320       -1.1997673102       -0.8853359738
 H         -7.3501500813        0.7730750036       -2.1820063588
 H         -6.0945363331        2.8953715057       -2.0800504933
 H         -4.0552835880        3.0655682889       -0.6993058455
 H         -3.2757911945        1.0935454301        0.5911252225
 H         -3.5617366103       -2.6568924673       -1.0966618725
 H         -2.6200084596       -1.3559650444       -2.8318270377
 H         -0.8962372168        0.2844665607       -3.4872966883
 H          0.5618955027        1.3022369978       -1.7825305697
 H          0.4943121590        0.1823032705        1.8055878763
 C          0.0527835055        2.1941131446        1.2491866125
 C         -1.1583669296        2.3127671580        2.1235646886
 C          0.1888204336        2.7093910330        2.6486210951
 H          0.4007597527        3.7580537618        2.7928036778
 H          0.6627173053        2.0647072501        3.3747311956
 H         -1.8727809995        3.0938627853        1.9113684609
 H         -1.6016147318        1.4023052806        2.5020405432
 H          0.1670506567        2.9055156572        0.4414986229
