  62
        -98.94831032
 C         -0.8032382793       -1.2169112352        0.0580587436
 C         -1.5847374897       -0.7249080965        1.1294682823
 C         -2.4402401241        0.4256792130        0.8179644727
 C         -2.4153720086        0.9608758315       -0.4161540103
 C         -3.2697581611        2.1001821778       -0.9028876284
 C         -4.6756296780        1.6728066460       -1.3490779323
 C         -5.6384477535        1.3055771228       -0.2192219336
 H         -5.6517627619        2.1059562643        0.5212559343
 H         -6.6377236032        1.2496538322       -0.6556545496
 C         -5.3286202253       -0.0301495924        0.4707604106
 H         -6.2519900802       -0.6014767041        0.5902718254
 H         -4.6648610260       -0.6235778739       -0.1622381964
 C         -4.6975633046        0.1035533249        1.8567232472
 H         -4.4857476363       -0.8996260759        2.2355060291
 H         -5.4060217206        0.5779540138        2.5396097715
 C         -3.3876374655        0.9023944381        1.8772728160
 H         -3.5929455627        1.9656511454        1.7551742876
 H         -2.9066621524        0.7489131500        2.8469174125
 H         -4.5826122468        0.8288422640       -2.0361543329
 H         -5.1075710308        2.5080986725       -1.9049967336
 H         -2.7556173006        2.5285185582       -1.7644877549
 H         -3.3516121846        2.8602164580       -0.1256961049
 O         -1.5843575083        0.5113457231       -1.3928812623
 C         -0.7695763908       -0.5921784869       -1.1885097650
 O         -0.0785061779       -0.9098193189       -2.1738124572
 O         -1.5807512857       -1.2326491913        2.2840578123
 C          0.0196376024       -2.4748869193        0.2629053012
 C          1.4672028293       -2.2359716017       -0.0803514915
 C          2.2142866778       -3.0922278594       -0.8790188565
 C          3.5416685352       -2.8133133550       -1.1535958129
 C          4.1490116028       -1.6825340791       -0.6412660201
 C          3.4126731417       -0.8262213333        0.1712289634
 C          2.0857574644       -1.1099669268        0.4492992568
 H          1.5232603319       -0.4451781536        1.0895689398
 N          4.0090451180        0.3175966159        0.7185047015
 S          3.1267524522        1.6406771471        1.1926305303
 O          4.1126170442        2.6963795387        1.3051596414
 O          2.3911085973        1.3522396511        2.3994655959
 C          1.9964465809        2.0635464539       -0.1223084067
 C          0.8768586008        2.7914375286        0.2273687566
 C          0.0291290412        3.2449137756       -0.7688463319
 C          0.3044091501        2.9483994071       -2.0943575624
 C          1.4229783017        2.2036254320       -2.4292341939
 C          2.2865715120        1.7657253384       -1.4378852500
 H          3.1630427931        1.1894583771       -1.6852913955
 H          1.6256557585        1.9580876102       -3.4590181402
 H         -0.3584209367        3.2946889796       -2.8716899029
 H         -0.8409616373        3.8244798642       -0.5057994919
 H          0.6899526802        2.9832353725        1.2724153064
 H          4.9188415776        0.5609862613        0.3575373074
 H          5.1821596806       -1.4611343947       -0.8607398915
 H          4.1095119199       -3.4831344747       -1.7811234026
 H          1.7570858094       -3.9758043631       -1.2923388160
 H         -0.0432295367       -2.6940671664        1.3397663193
 C         -0.6052610098       -3.6229709637       -0.5044140485
 C         -0.4697822852       -5.0306116396       -0.0080697493
 C         -1.7890766339       -4.3265247027        0.0859721484
 H         -2.5885387732       -4.6340488182       -0.5714499964
 H         -2.1267841686       -3.9953858344        1.0573551123
 H         -0.3661607356       -5.8256646779       -0.7309890343
 H          0.0860398849       -5.1874006035        0.9039784254
 H         -0.6085982855       -3.4532543967       -1.5756462778
