  62
        -98.94079978
 C          2.6177901776        0.8389526221       -0.1773509609
 C          2.0645817062       -0.1405147449       -1.0399647825
 C          2.6016915486       -1.5012878100       -0.8862560750
 C          3.5993937910       -1.7419086945       -0.0178888300
 C          4.2878037501       -3.0614301304        0.2056922927
 C          3.5668088892       -3.9885895600        1.1928877944
 C          2.2731220939       -4.6121460410        0.6682974336
 H          2.4634817138       -5.0880183957       -0.2941177980
 H          1.9867501100       -5.3975387897        1.3704409499
 C          1.1070737658       -3.6228400963        0.5327783870
 H          1.3181154619       -2.7210652243        1.1126545244
 H          0.2001108759       -4.0613254923        0.9547128461
 C          0.7768883916       -3.2119021158       -0.9024448040
 H          0.4120392451       -4.0791645315       -1.4584249365
 H         -0.0284661954       -2.4725810352       -0.8617025029
 C          1.9537813291       -2.5992817417       -1.6736587862
 H          2.6815930292       -3.3708353171       -1.9266949523
 H          1.5668137004       -2.1630288810       -2.5981059650
 H          3.3559123736       -3.4289623930        2.1069810553
 H          4.2583405961       -4.7951672700        1.4470459209
 H          4.4134843891       -3.5723601120       -0.7493148926
 H          5.2754854798       -2.8293975488        0.6099734910
 O          4.1359993794       -0.7648211696        0.7606715747
 C          3.6348377344        0.5247834325        0.7290732855
 O          4.1875449370        1.3020411352        1.5344259064
 H         -0.3773683718        1.3734789709       -0.7058090425
 C         -0.3177377000        1.8653424889        0.2525538659
 C          0.8897736797        2.3864381293        0.6980684578
 C          0.9389293755        2.9880528543        1.9511577538
 C         -0.1928981229        3.0627522687        2.7425010894
 C         -1.3914503857        2.5339995014        2.3008883360
 C         -1.4526149549        1.9318208956        1.0481728994
 N         -2.6678161113        1.4162050282        0.5700699651
 S         -2.6419831368        0.0248141879       -0.3911381723
 O         -1.7381725160       -0.9504328457        0.1727011085
 O         -2.4328923394        0.4123145956       -1.7619826190
 C         -4.3314637069       -0.5138119842       -0.1887832064
 C         -5.3243111081        0.1693061043       -0.8660864820
 C         -6.6430977746       -0.2191568257       -0.6934576269
 C         -6.9463075849       -1.2793337635        0.1482809912
 C         -5.9395968463       -1.9575183771        0.8184783668
 C         -4.6183020263       -1.5720370005        0.6517907138
 H         -3.8013909574       -2.0723625792        1.1468644864
 H         -6.1775387373       -2.7837698270        1.4688490259
 H         -7.9734245636       -1.5806964118        0.2801607890
 H         -7.4280874535        0.3039521648       -1.2152992737
 H         -5.0389036851        0.9789811287       -1.5172078516
 H         -3.3740028988        1.3503457140        1.2908127926
 H         -2.2751907390        2.5852651135        2.9187728003
 H         -0.1392119748        3.5293716415        3.7144774518
 H          1.8808660103        3.3790280514        2.3080223682
 C          2.1425101603        2.2843201842       -0.1399526929
 H          2.9354552842        2.8399530420        0.3798799508
 C          1.9529154046        2.9008969000       -1.5109432537
 C          1.9953653083        4.3927408071       -1.6427550736
 C          3.1184989554        3.5598205605       -2.1822095115
 H          3.2210906569        3.4566447740       -3.2519943064
 H          4.0600134437        3.5677798299       -1.6520216699
 H          2.1776119573        4.9686689852       -0.7479251594
 H          1.3233437284        4.8654343334       -2.3424298574
 H          1.2602166259        2.3578754568       -2.1400514366
 O          1.1873274524        0.0847624467       -1.9145690531
