  62
        -98.93300357
 C          2.2850368644        1.2436872099        0.0903033445
 C          3.2193880941        0.6210463370        0.9553559212
 C          4.1416940949       -0.3455721948        0.3406484254
 C          4.0281055965       -0.6104798133       -0.9733697733
 C          4.8395269869       -1.6200390175       -1.7346080091
 C          4.3186074463       -3.0425143440       -1.4464396678
 C          5.3083592331       -3.9372707818       -0.6998924972
 H          4.7622277875       -4.8221816659       -0.3660348731
 H          6.0807361790       -4.2701949527       -1.3963027997
 C          6.0076148692       -3.2991297139        0.5042424736
 H          6.8259271864       -2.6649330447        0.1601749766
 H          6.4625105891       -4.1114367686        1.0750308741
 C          5.1130893483       -2.4791700476        1.4430679378
 H          4.0748181982       -2.8034950590        1.3663523329
 H          5.4301431211       -2.6727982352        2.4699375164
 C          5.1885079004       -0.9553536035        1.2317084110
 H          5.0532895671       -0.4626017496        2.1992401437
 H          6.1825824105       -0.6870760991        0.8630071748
 H          3.3947977793       -2.9587870465       -0.8698254750
 H          4.0576185129       -3.5316592311       -2.3860400292
 H          5.8878123331       -1.5326483581       -1.4577631339
 H          4.7367116021       -1.3856845021       -2.7942764478
 O          3.0846111704       -0.0340691631       -1.7604437227
 C          2.1860582716        0.9005424406       -1.2588696687
 O          1.3777569488        1.3235474183       -2.1038677648
 O          3.2770098703        0.8616136826        2.1920205839
 C          1.3300931386        2.2558338101        0.6969850300
 C         -0.0871250693        1.9653109180        0.2695530932
 C         -0.8962720704        2.8772764830       -0.3936707851
 C         -2.1914929582        2.5380031376       -0.7449031422
 C         -2.7068833681        1.2912251117       -0.4449882380
 C         -1.9081912358        0.3714300496        0.2224058940
 C         -0.6145315907        0.7168747342        0.5793411681
 H          0.0086336557       -0.0013984182        1.1000187897
 N         -2.4214369585       -0.9048039493        0.5194528844
 S         -3.8797787485       -0.9892242529        1.3499532847
 O         -4.0693569439        0.1630473117        2.2007305861
 O         -3.8643967816       -2.2778245190        2.0078446238
 C         -5.1099863134       -1.0082581509        0.0635947276
 C         -6.1020469998       -0.0474898027        0.0452858948
 C         -7.0526790534       -0.0856357243       -0.9629495776
 C         -6.9949890236       -1.0787889253       -1.9286913358
 C         -5.9938598278       -2.0382154709       -1.8940702734
 C         -5.0411469584       -2.0064809594       -0.8883492381
 H         -4.2496394155       -2.7344201270       -0.8234398263
 H         -5.9522609525       -2.8090320581       -2.6467257233
 H         -7.7346189058       -1.1057073582       -2.7132291601
 H         -7.8319143937        0.6589075537       -0.9915748269
 H         -6.1030854317        0.7087439911        0.8139861895
 H         -1.7442150693       -1.5250705843        0.9392865056
 H         -3.7121005465        1.0220746938       -0.7250753510
 H         -2.8066142692        3.2545754182       -1.2674605449
 H         -0.5070242590        3.8470615536       -0.6555659543
 H          1.3938833315        2.0709685100        1.7831502339
 C          1.7394256403        3.7059748478        0.4863292822
 C          3.1758438753        4.0828759699        0.2841143310
 C          2.1978660315        4.2288835294       -0.8408677778
 H          1.8968586227        5.2254100157       -1.1294465091
 H          2.2468422638        3.5319479525       -1.6623460852
 H          3.5443512480        4.9749305074        0.7680443860
 H          3.9011172443        3.2837477423        0.2314014456
 H          1.1502669928        4.3823433442        1.0983559382
