  62
        -98.94340708
 C         -2.5001860033       -1.1273995115       -0.0007678030
 C         -3.4734869173       -0.6112212611        0.8970599891
 C         -4.4424561369        0.3351430395        0.3369879973
 C         -4.3867731627        0.6472316591       -0.9700969818
 C         -5.3185613206        1.5744196331       -1.7018795347
 C         -4.9458111081        3.0584310826       -1.5807842126
 C         -5.2125466823        3.6868205070       -0.2123612478
 H         -5.1159775442        4.7676991395       -0.3323523945
 H         -6.2416787870        3.4833084809        0.0850985368
 C         -4.2533428531        3.2258238138        0.8940510487
 H         -3.3717107316        2.7635749663        0.4436732066
 H         -3.9051512589        4.0934763794        1.4588376700
 C         -4.8654323508        2.2485066336        1.8977057662
 H         -4.0890614151        1.9590147640        2.6103948011
 H         -5.6644315278        2.7451307939        2.4525874932
 C         -5.4311655162        0.9688210383        1.2683028137
 H         -6.3614343642        1.1864015486        0.7439676212
 H         -5.6382395893        0.2547706992        2.0690634771
 H         -3.8900439131        3.1754050293       -1.8361731203
 H         -5.5302076006        3.6022059148       -2.3266108802
 H         -6.3381831442        1.4239871476       -1.3459261622
 H         -5.2729626191        1.2925386052       -2.7560707382
 O         -3.4551122022        0.1172243133       -1.8036294689
 C         -2.4824394005       -0.7609666965       -1.3463561594
 O         -1.6927506307       -1.1252849348       -2.2424294159
 O         -3.5333149384       -0.9377795401        2.1118405453
 C         -1.4937439915       -2.1051092534        0.5829529186
 C         -0.1646787617       -1.4422384092        0.8591385536
 C          0.3105968768       -1.3179952777        2.1595050609
 C          1.5364930748       -0.7259010948        2.4085201095
 C          2.3106242572       -0.2428989966        1.3688946642
 C          1.8436334171       -0.3592916031        0.0661064991
 C          0.6177448932       -0.9606204622       -0.1809729653
 H          0.2562397730       -1.0413081619       -1.1956324449
 N          2.6105033591        0.1505405391       -0.9971300353
 S          4.2116889824       -0.3415920387       -1.1206389685
 O          4.5482228014       -0.2034600514       -2.5206683966
 O          4.4092573721       -1.6484012468       -0.5370548400
 C          5.1074839252        0.8830585008       -0.1882192831
 C          5.8988553570        0.4974489502        0.8759970009
 C          6.5923117571        1.4684240613        1.5818849018
 C          6.4836010451        2.8002058854        1.2121112347
 C          5.6870245032        3.1706879203        0.1387052761
 C          4.9919775115        2.2049497631       -0.5714473682
 H          4.3670940885        2.4494675763       -1.4143349356
 H          5.6058358123        4.2072192804       -0.1466056083
 H          7.0232772969        3.5542592275        1.7629889274
 H          7.2127498599        1.1824719444        2.4159595979
 H          5.9497377906       -0.5495857510        1.1290510022
 H          2.1472322223        0.0735498554       -1.8916005832
 H          3.2650572710        0.2215254564        1.5559296109
 H          1.8923226653       -0.6370072586        3.4235565031
 H         -0.2939218897       -1.6810614119        2.9779435104
 H         -1.9212911066       -2.4061915359        1.5489062736
 C         -1.3082997136       -3.3494357149       -0.2639911003
 C         -0.7729983614       -4.5924857136        0.3783828077
 C         -2.2087227429       -4.5266429399       -0.0467514598
 H         -2.5219866083       -5.1001519065       -0.9062232668
 H         -2.9643174543       -4.4425591616        0.7207080115
 H         -0.0946005924       -5.2126435328       -0.1873368567
 H         -0.5552573461       -4.5547620606        1.4350003126
 H         -1.0056372447       -3.1392435627       -1.2817577230
