  62
        -98.93963213
 C         -2.6645180781       -1.2908331658        0.3584273153
 C         -2.8882704520       -0.5163570816       -0.8064708054
 C         -3.8471352746        0.5923057401       -0.6657977071
 C         -4.4489266733        0.8076402357        0.5171631901
 C         -5.3872344745        1.9407508671        0.8126674619
 C         -4.6284228159        3.1605595395        1.3542201847
 C         -3.4109359445        3.5528633002        0.5169662625
 H         -2.9742622019        4.4427171500        0.9753681791
 H         -2.6628569644        2.7590682330        0.5810792728
 C         -3.7215418633        3.8387023635       -0.9590195972
 H         -4.7893155061        4.0213122513       -1.0845766335
 H         -3.1995653373        4.7505272258       -1.2568857747
 C         -3.2799793083        2.7379846210       -1.9254145851
 H         -2.2316022903        2.4889319007       -1.7415991933
 H         -3.3478819679        3.1314410852       -2.9433138787
 C         -4.0987030689        1.4414287124       -1.8805294801
 H         -5.1612253436        1.6739435698       -1.9749890640
 H         -3.8024528125        0.8323573238       -2.7398085587
 H         -5.3215270120        4.0019689913        1.4080725005
 H         -4.2880432089        2.9343929477        2.3672876222
 H         -5.9255362288        2.2073481423       -0.0947321337
 H         -6.1037154303        1.6064087173        1.5647511213
 O         -4.2245657590        0.0329660217        1.6084006017
 C         -3.3288003653       -1.0199754885        1.5593157137
 O         -3.2148342089       -1.6422530846        2.6338435218
 H         -0.2944193322       -0.5924692466       -0.9369007890
 C          0.2795573629       -1.0147251766       -0.1250091979
 C         -0.2920123788       -2.0006167062        0.6677287502
 C          0.4651124392       -2.5477045550        1.6965566261
 C          1.7592501079       -2.1129252197        1.9248810199
 C          2.3225998599       -1.1255324071        1.1365323853
 C          1.5761178305       -0.5753059257        0.1024922114
 N          2.1272557107        0.4393984932       -0.6972038444
 S          3.6763158966        0.2348904446       -1.3087516501
 O          3.7293443550        1.0638374913       -2.4926148656
 O          3.9952198544       -1.1627648396       -1.4867565588
 C          4.7207111261        0.9477739262       -0.0552705009
 C          5.7584165900        0.2115224517        0.4816256587
 C          6.5615527253        0.7933653316        1.4503766151
 C          6.3145683818        2.0940668635        1.8617445344
 C          5.2700138560        2.8211871828        1.3102510048
 C          4.4642364750        2.2457596547        0.3410018456
 H          3.6449321056        2.7769684242       -0.1142319186
 H          5.0809652335        3.8325725553        1.6324032916
 H          6.9397664565        2.5442666171        2.6165380735
 H          7.3744215184        0.2302763522        1.8799648873
 H          5.9099160962       -0.7983223522        0.1347240755
 H          1.4986848561        0.7708914789       -1.4147019679
 H          3.3295946656       -0.7834518968        1.3106579204
 H          2.3356985660       -2.5454189509        2.7282815419
 H          0.0284918549       -3.3100706124        2.3250884929
 C         -1.7014789825       -2.4670618337        0.4059368600
 H         -2.0199975798       -3.0601714466        1.2772828189
 C         -1.8123549116       -3.3696626510       -0.8170835293
 C         -0.7265469823       -3.5403484100       -1.8329589831
 C         -1.0312726199       -4.6491662217       -0.8738299455
 H         -1.5179290570       -5.5389144170       -1.2434152327
 H         -0.3190593057       -4.8297348813       -0.0826245199
 H          0.1951184826       -2.9938506608       -1.7040965756
 H         -1.0226035007       -3.6471837131       -2.8656533275
 H         -2.8281306765       -3.4069005851       -1.1977433069
 O         -2.3239186965       -0.7149714643       -1.9146592886
