  62
        -98.94420136
 C         -1.4422588902       -1.5295432347       -0.9501388825
 C         -2.6569953368       -1.2615141185       -0.2674903521
 C         -3.3100079333        0.0146186857       -0.5691996205
 C         -2.7597474299        0.8441132981       -1.4734932676
 C         -3.2830848384        2.1968109114       -1.8713451398
 C         -2.8393971745        3.3164198755       -0.9194460056
 C         -3.5546660336        3.3361401312        0.4321368472
 H         -3.3314413411        4.2982969653        0.8977571897
 H         -4.6334495413        3.2900774702        0.2758015095
 C         -3.1197764139        2.2173048736        1.3894688693
 H         -2.9539920108        2.6370774047        2.3851387904
 H         -2.1605871414        1.8093526682        1.0592862159
 C         -4.1311371742        1.0801743522        1.5427240502
 H         -3.6953250461        0.3246825351        2.2020055477
 H         -5.0385302471        1.4608917250        2.0180823347
 C         -4.5213488476        0.3915952467        0.2284884240
 H         -5.0596222900       -0.5281118764        0.4716592898
 H         -5.1764007441        1.0378725491       -0.3554649976
 H         -1.7626226223        3.2263602860       -0.7522625099
 H         -3.0243290729        4.2692333247       -1.4215793718
 H         -4.3716544096        2.1728759691       -1.9303728954
 H         -2.8830582480        2.4085211070       -2.8653018599
 O         -1.6321825899        0.5270079307       -2.1549299619
 C         -0.9095565087       -0.6270282684       -1.8698469410
 O          0.1489133058       -0.7151726798       -2.5204762800
 O         -3.1676963163       -2.0596166792        0.5649592218
 C         -0.6930015537       -2.7747364424       -0.5034473201
 C          0.0243437168       -2.4402470223        0.7822189695
 C         -0.0775298578       -3.2432656065        1.9101941589
 C          0.5142574727       -2.8529046735        3.0996752608
 C          1.1883553461       -1.6492514758        3.1913591991
 C          1.3018662634       -0.8401653947        2.0636891065
 C          0.7523805025       -1.2610225836        0.8640404034
 H          0.8402743323       -0.6349718400       -0.0074231800
 N          1.9716616173        0.3855854791        2.1292405269
 S          1.6756045674        1.6787742979        1.1040560192
 O          1.9657651532        2.8406461103        1.9199189917
 O          0.3579909746        1.6286692254        0.5200575583
 C          2.9628349149        1.5182280227       -0.1162266365
 C          2.7082806345        1.0184616029       -1.3763133707
 C          3.7623276656        0.8934016652       -2.2699680196
 C          5.0423441029        1.2665686402       -1.8938859352
 C          5.2814427178        1.7710930005       -0.6238590872
 C          4.2346710208        1.8974476563        0.2729139723
 H          4.3716771992        2.2974447751        1.2638837963
 H          6.2771009986        2.0645246095       -0.3325418107
 H          5.8558496866        1.1655560103       -2.5949136892
 H          3.5658755348        0.4994267996       -3.2543396891
 H          1.7088987714        0.7256710759       -1.6605259408
 H          2.2285068617        0.6885273151        3.0562060067
 H          1.6163369294       -1.3289846652        4.1290077278
 H          0.4271727979       -3.4811467406        3.9732666935
 H         -0.6470348888       -4.1595817049        1.8608993274
 H         -1.4737797948       -3.5135993980       -0.2598794209
 C          0.2081275580       -3.3916633708       -1.5590288904
 C          1.7003566415       -3.2839805537       -1.5267580447
 C          1.0404474326       -4.5922859556       -1.2169637414
 H          1.1121249419       -5.3931191992       -1.9370133344
 H          1.0406585368       -4.9192652867       -0.1880904468
 H          2.2114070953       -3.1665679140       -2.4696709452
 H          2.1548225230       -2.7352272087       -0.7164607127
 H         -0.2521526940       -3.3796795609       -2.5411555885
