  62
        -98.94316157
 C         -2.5017235685       -1.0468225521       -0.0688365961
 C         -3.6274893642       -0.8017518686        0.7557096878
 C         -4.6796924521        0.0427403780        0.1764075683
 C         -4.5210555660        0.5280884330       -1.0686838552
 C         -5.4875606108        1.4443395297       -1.7604600696
 C         -5.1416736113        2.9172539380       -1.5008279559
 C         -4.9141002435        3.2478290026       -0.0257972021
 H         -4.0180644425        2.7283051740        0.3216984210
 H         -4.7096953789        4.3186518899        0.0394794399
 C         -6.0923724843        2.8953359943        0.8928066699
 H         -6.9986195953        2.7650681780        0.3002300599
 H         -6.2679405053        3.7308067466        1.5737582972
 C         -5.8708843958        1.6540120098        1.7589422148
 H         -6.6588606411        1.6224189199        2.5161263639
 H         -4.9161728335        1.7393385595        2.2839652778
 C         -5.8954210877        0.3108616126        1.0185222382
 H         -5.9187997885       -0.4825916404        1.7712757230
 H         -6.8035983429        0.2393022885        0.4165735654
 H         -4.2295692281        3.1605661514       -2.0505730472
 H         -5.9507509833        3.5356673693       -1.8937415101
 H         -5.4355652479        1.2518478191       -2.8333753144
 H         -6.4958245743        1.2300304200       -1.4113802073
 O         -3.4273307026        0.2714816429       -1.8298673610
 C         -2.3886743609       -0.5157122054       -1.3535746351
 O         -1.4520382881       -0.6653155363       -2.1609454394
 O         -3.7465349905       -1.2698394205        1.9195951311
 C         -1.3817046356       -1.9145101385        0.4798412831
 C         -0.1335692367       -1.0800401970        0.6239290084
 C         -0.0704092377       -0.1380141749        1.6477740995
 C          1.0461260579        0.6599316223        1.8073017515
 C          2.1232635208        0.5407566239        0.9456622677
 C          2.0690628205       -0.3917707300       -0.0802735811
 C          0.9493155181       -1.1998359299       -0.2319243805
 H          0.9208433564       -1.9147467808       -1.0392418336
 N          3.1562635359       -0.5066977231       -0.9656455908
 S          4.6720190107       -0.7978284907       -0.3054013914
 O          5.4237613337       -1.4597597297       -1.3493881789
 O          4.5715794581       -1.4967169872        0.9552212739
 C          5.3502329504        0.8278544505       -0.0468930681
 C          5.7596495473        1.2098384444        1.2155461339
 C          6.2970743788        2.4755603322        1.3912792339
 C          6.4155066664        3.3315267386        0.3070637153
 C          6.0012992989        2.9317986751       -0.9549716637
 C          5.4639483047        1.6676666606       -1.1374606344
 H          5.1339747212        1.3172934506       -2.1013280712
 H          6.0951431054        3.6002604208       -1.7956894622
 H          6.8337736324        4.3159744107        0.4459391981
 H          6.6200844227        2.7881517691        2.3713118561
 H          5.6441348377        0.5116959925        2.0292469299
 H          2.9785196761       -1.1283057168       -1.7414349627
 H          2.9968762526        1.1617486036        1.0601734813
 H          1.0799092962        1.3830104317        2.6080835446
 H         -0.9143585404       -0.0416442560        2.3171790372
 H         -1.7103857170       -2.2077187119        1.4867561775
 C         -1.1926671721       -3.1659840826       -0.3511755968
 C         -0.4199835083       -4.3179679974        0.2166168970
 C         -1.9051060957       -4.4224006467        0.0457282236
 H         -2.2909005535       -5.0632179936       -0.7329067309
 H         -2.5259945312       -4.3862425296        0.9287287669
 H          0.2157908805       -4.8900716345       -0.4422929048
 H         -0.0282575569       -4.2093320234        1.2168657335
 H         -1.1002960999       -2.9641834487       -1.4120665402
