  62
        -98.92995350
 C          2.2236681194        0.2211677093        0.4449595100
 C          3.3399227270        0.7770809421       -0.2250845650
 C          4.4669885496       -0.1391877968       -0.4981101071
 C          4.3832170048       -1.4301648155       -0.1307643224
 C          5.3420359933       -2.5876747859       -0.3192042921
 C          6.7934992478       -2.3430416528       -0.7243081920
 C          7.6427054010       -1.6373526242        0.3323880830
 H          7.7901130559       -2.3206875769        1.1725519769
 H          8.6227369721       -1.4276483280       -0.1016260265
 C          7.0589022424       -0.3417430196        0.8902498351
 H          6.1257196198       -0.5562982812        1.4153997782
 H          7.7615286573        0.0495302150        1.6311351112
 C          6.8079187333        0.7586971535       -0.1387875013
 H          7.7251710259        0.9560604551       -0.6968049030
 H          6.5474870836        1.6680352604        0.4094749315
 C          5.6735893649        0.4830057303       -1.1408264272
 H          6.0196267699       -0.1232219772       -1.9742938808
 H          5.3426548604        1.4431259724       -1.5471357045
 H          6.8360094543       -1.8069216743       -1.6676836042
 H          7.2364589130       -3.3272582379       -0.8994254152
 H          5.3223660613       -3.1445548734        0.6230645303
 H          4.8776342601       -3.2375585385       -1.0692001028
 O          3.2720239826       -1.9276963232        0.4908690658
 C          2.1891725924       -1.1277861752        0.8015648278
 O          1.2688322785       -1.7257355506        1.3976584751
 O          3.4153389251        1.9755991290       -0.5957913990
 C          0.9944092711        1.0274121729        0.8289475693
 C         -0.0146243979        1.0574775861       -0.2907871607
 C          0.3563812278        1.3822436637       -1.5920059617
 C         -0.5875794391        1.4062553395       -2.6019849342
 C         -1.9125657365        1.1096632250       -2.3363371517
 C         -2.2962011598        0.7932681580       -1.0378437349
 C         -1.3452413713        0.7662395841       -0.0267879618
 H         -1.6496537709        0.4952506626        0.9730151541
 N         -3.6470126688        0.5455133711       -0.7396905683
 S         -4.0523239447       -0.5699858147        0.4603062376
 O         -3.8197691763        0.0310324803        1.7493884521
 O         -3.4016180929       -1.8361152203        0.2076945593
 C         -5.8067720504       -0.7028895987        0.1713221348
 C         -6.6249526416        0.3210691690        0.6106253142
 C         -7.9867359847        0.2412645984        0.3675076493
 C         -8.5053439642       -0.8549601007       -0.3060430496
 C         -7.6723578306       -1.8758164565       -0.7382386219
 C         -6.3086858959       -1.8013102799       -0.5001355477
 H         -5.6233619664       -2.5737558727       -0.8105607301
 H         -8.0785429204       -2.7284072001       -1.2582010234
 H         -9.5658449407       -0.9153242027       -0.4929828797
 H         -8.6378831303        1.0315885975        0.7044571781
 H         -6.1782982312        1.1475060809        1.1381953289
 H         -4.2056070358        0.3989267217       -1.5699601491
 H         -2.6467798374        1.1273076384       -3.1274104611
 H         -0.2875203840        1.6562149764       -3.6085437500
 H          1.3880420938        1.6213925191       -1.7993928292
 H          0.5355903365        0.4711326521        1.6632588791
 C          1.3339862113        2.4189042399        1.3492499523
 C          1.0040522412        3.6806498178        0.6161400998
 C          0.2378414357        3.3132089134        1.8488055567
 H          0.4035282145        3.8779461518        2.7538514116
 H         -0.7776232290        2.9657397730        1.7251609147
 H          1.7187961290        4.4874728062        0.6679898936
 H          0.5060365120        3.6011235174       -0.3369566678
 H          2.2588284530        2.4211657272        1.9172472223
