  62
        -98.94503417
 C         -2.2031974673        0.8346971625        0.0762227417
 C         -3.0752070379        0.5537680460       -1.0085113020
 C         -3.8674016489       -0.6777038382       -0.9082295449
 C         -3.7015324765       -1.4777450614        0.1604641291
 C         -4.4687726908       -2.7420786413        0.4145416508
 C         -5.7338658983       -2.4676167518        1.2395826473
 C         -6.5838827269       -1.3170685684        0.7003751354
 H         -7.4653449788       -1.2368418686        1.3400972776
 H         -6.0257670718       -0.3836942450        0.8033523790
 C         -7.0250737713       -1.4843888766       -0.7603699504
 H         -8.0827076489       -1.2241496823       -0.8382604508
 H         -6.9255166734       -2.5281796307       -1.0601604927
 C         -6.2741118556       -0.5974235165       -1.7552842991
 H         -6.8060631161       -0.6319211213       -2.7096604150
 H         -6.2919345182        0.4384997912       -1.4077535214
 C         -4.8165806215       -0.9878302125       -2.0315440027
 H         -4.7625733629       -2.0451123909       -2.2991584564
 H         -4.4705842675       -0.3992776862       -2.8861732067
 H         -5.4339048374       -2.2230608783        2.2612424573
 H         -6.3303737160       -3.3811894668        1.2702429084
 H         -4.7343365238       -3.1964731627       -0.5380413062
 H         -3.8252465359       -3.4289682669        0.9671274464
 O         -2.8372822622       -1.1935783789        1.1660898223
 C         -2.0727313695       -0.0356728198        1.1584217102
 O         -1.3449192221        0.0829071451        2.1647927802
 H          0.6324241076        1.1757047360        1.5819977852
 C          0.9395518721        1.2547231521        0.5505284200
 C          0.0422226236        1.7255058642       -0.3970680300
 C          0.4449449066        1.7746574295       -1.7276799573
 C          1.7141280232        1.3662667942       -2.0960052957
 C          2.6032593338        0.8902795849       -1.1484942371
 C          2.2040522831        0.8213790956        0.1793429494
 N          3.0916757424        0.3095034023        1.1462677612
 S          3.7183916415       -1.2235244035        0.8517364963
 O          2.8332485393       -2.0121591945        0.0247651117
 O          4.0382350339       -1.7652082012        2.1546960256
 C          5.2361679586       -0.8919412373       -0.0204308560
 C          5.4514033927       -1.4442871390       -1.2678272607
 C          6.6420063706       -1.1729885360       -1.9243494996
 C          7.5910948555       -0.3594581996       -1.3246395758
 C          7.3609915276        0.1847546114       -0.0697166286
 C          6.1735404975       -0.0832345211        0.5921953787
 H          5.9560069074        0.3154123260        1.5688991771
 H          8.1015455624        0.8164850710        0.3936527629
 H          8.5156285862       -0.1485746092       -1.8385210437
 H          6.8226751243       -1.5958745087       -2.8995377796
 H          4.6816359528       -2.0661667247       -1.6966890413
 H          2.7103993211        0.3456428515        2.0818216533
 H          3.5900477703        0.5599351589       -1.4291726147
 H          2.0133216298        1.4138855623       -3.1319816827
 H         -0.2565611010        2.1182851482       -2.4744370570
 C         -1.3691078084        2.1035841270       -0.0178181360
 H         -1.8012502837        2.6686081090       -0.8543745245
 C         -1.4393243580        2.9595474187        1.2299247721
 C         -0.9741587396        4.3824268528        1.1597328816
 C         -2.4348214814        4.0772849093        1.2957349261
 H         -2.9201447309        4.2786545068        2.2389911931
 H         -3.0708584278        4.2319925124        0.4364542511
 H         -0.4535109584        4.7965260400        2.0094008625
 H         -0.6183990496        4.7425311689        0.2063889974
 H         -1.2537695392        2.4118887830        2.1448158411
 O         -3.1870245873        1.3046642599       -2.0135713520
