  62
        -98.94354284
 C         -1.9715229669       -1.4187544568        0.1758962657
 C         -2.1723502826       -0.4568366597        1.1990866152
 C         -3.0946263381        0.6392312704        0.8874864683
 C         -3.6815311371        0.6899589450       -0.3222836550
 C         -4.6908592654        1.7090696865       -0.7772262521
 C         -4.0784756650        3.0169587354       -1.2955726147
 C         -3.4878953543        3.9272143775       -0.2185530058
 H         -3.3016168118        4.8964463083       -0.6853053199
 H         -4.2260767663        4.0832603663        0.5687317257
 C         -2.1769015134        3.4138229637        0.3926758061
 H         -1.7442966787        2.6501826920       -0.2576024214
 H         -1.4604707388        4.2355538774        0.4473005443
 C         -2.3104715625        2.8405000443        1.8033262587
 H         -2.6012271726        3.6332400689        2.4964026068
 H         -1.3324064756        2.4629269627        2.1126030417
 C         -3.3210370938        1.6932884207        1.9291579148
 H         -3.1888768852        1.2256977616        2.9081253992
 H         -4.3381873645        2.0795696274        1.8623853452
 H         -3.3091845633        2.7743646227       -2.0319784964
 H         -4.8709557611        3.5649827658       -1.8104350464
 H         -5.2524705350        1.2453400085       -1.5910921391
 H         -5.3806540350        1.9276165312        0.0387780814
 O         -3.4337936145       -0.2290715349       -1.2904419832
 C         -2.5652496839       -1.2919916955       -1.0807740911
 O         -2.4303327386       -2.0280348191       -2.0758488647
 O         -1.6175183257       -0.5235444446        2.3293507993
 C         -1.0499594053       -2.5860612129        0.4921381636
 C          0.3125331814       -2.3241953948       -0.1025596398
 C          0.6271078487       -2.6374567211       -1.4198046003
 C          1.8840577908       -2.3520218690       -1.9230866588
 C          2.8498554378       -1.7563147700       -1.1308705803
 C          2.5400246296       -1.4242717847        0.1817661429
 C          1.2770854643       -1.7076990687        0.6840172304
 H          1.0308511098       -1.4397777882        1.7030595271
 N          3.5117820859       -0.8311291669        1.0081830143
 S          4.3896902393        0.4788736115        0.4532631735
 O          5.2730347094        0.0518854315       -0.6017854886
 O          5.0187082600        1.0322869339        1.6300812602
 C          3.1767764067        1.6178103505       -0.1855929584
 C          2.8675841105        1.6099019243       -1.5305479779
 C          1.8857344587        2.4705036351       -1.9955275551
 C          1.2352020494        3.3191817083       -1.1136092162
 C          1.5588862600        3.3158538554        0.2347059852
 C          2.5344437370        2.4537187974        0.7063611248
 H          2.8205385475        2.4276044356        1.7456741674
 H          1.0535527890        3.9780929023        0.9192668995
 H          0.4733227843        3.9893533285       -1.4795327500
 H          1.6314767058        2.4755003883       -3.0433777480
 H          3.4022818446        0.9446715732       -2.1879613261
 H          3.1871644417       -0.6589591022        1.9487230513
 H          3.8370090479       -1.5450006875       -1.5086598047
 H          2.1181170599       -2.6032281189       -2.9466317168
 H         -0.1241312925       -3.0824802047       -2.0519293423
 H         -0.9408967723       -2.5721075517        1.5852849265
 C         -1.6242996218       -3.9277668321        0.0885704000
 C         -1.0369551494       -5.1732949683        0.6791070710
 C         -2.4038550984       -4.7197756094        1.0932917549
 H         -3.2606236423       -5.2816497366        0.7527297384
 H         -2.5245584171       -4.2981158955        2.0806794786
 H         -0.9522936143       -6.0495609239        0.0551179875
 H         -0.2286629542       -5.0573924099        1.3855038687
 H         -1.9636580283       -3.9671442125       -0.9378160632
