  62
        -98.94763663
 C         -0.7736223135       -1.2707272533        0.0497675999
 C         -1.4921659080       -0.6312575437        1.0868161127
 C         -2.4025161211        0.4423375751        0.6677080424
 C         -2.4574831079        0.7875280531       -0.6318570502
 C         -3.4174379073        1.7827955032       -1.2146201811
 C         -4.7177178391        1.0961455850       -1.6591381917
 C         -5.3284250159        0.1739863562       -0.6038015449
 H         -6.2535820218       -0.2293593903       -1.0212743372
 H         -4.6572765790       -0.6715575603       -0.4360691279
 C         -5.6289411814        0.8549465226        0.7387454397
 H         -5.6483863884        1.9376309938        0.6095373396
 H         -6.6233809816        0.5504649380        1.0718048249
 C         -4.6543353695        0.4968300220        1.8621696441
 H         -5.0739143372        0.8561672036        2.8057330550
 H         -4.5642820581       -0.5898204876        1.9379486498
 C         -3.2455536057        1.0894002394        1.7302404076
 H         -3.3192682811        2.1663299433        1.5673860606
 H         -2.7220397280        0.9181772566        2.6756423429
 H         -4.5064896387        0.5002805273       -2.5499452329
 H         -5.4401380452        1.8681323897       -1.9301383581
 H         -3.6359491293        2.5519049793       -0.4770304257
 H         -2.9496230300        2.2416116587       -2.0860659031
 O         -1.6805482490        0.2131472819       -1.5844352042
 C         -0.8411067994       -0.8467015390       -1.2774278028
 O         -0.2217574332       -1.3117940389       -2.2522504652
 H          1.5279022665       -0.2243143807        0.5347888844
 C          2.1011129795       -1.0170495188        0.0764551409
 C          1.5153540531       -2.2648979794       -0.0942154138
 C          2.2696646361       -3.2800619976       -0.6688760565
 C          3.5722448027       -3.0416254026       -1.0710173846
 C          4.1496465602       -1.7973821188       -0.9034856678
 C          3.4043478463       -0.7748276303       -0.3250619879
 N          3.9506091063        0.5038051269       -0.1781005227
 S          3.3462127500        1.6354116570        0.8771306165
 O          4.3621635922        2.6670317847        0.9013635272
 O          3.0085750580        1.0613195726        2.1589704054
 C          1.8983182703        2.2878922687        0.0751942034
 C          0.7678157003        2.5458396357        0.8233899552
 C         -0.3218589679        3.1405920745        0.2085273331
 C         -0.2641439724        3.4604653464       -1.1384266856
 C          0.8722896142        3.1793413441       -1.8804633236
 C          1.9683615659        2.5931717931       -1.2692569642
 H          2.8711429729        2.3698936450       -1.8131512257
 H          0.9084535016        3.4186493214       -2.9310899877
 H         -1.1100690307        3.9334369982       -1.6112103035
 H         -1.2066655402        3.3530764351        0.7860536856
 H          0.7573907885        2.2708662083        1.8669170551
 H          4.9347404532        0.6019745457       -0.3722863802
 H          5.1643691447       -1.6114379350       -1.2199864184
 H          4.1465420069       -3.8374987164       -1.5204106039
 H          1.8376771274       -4.2577051815       -0.8058276211
 C          0.0993677139       -2.4646034189        0.3845170984
 H          0.1183069797       -2.5173474286        1.4842845562
 C         -0.5424856919       -3.7293606065       -0.1519237921
 C         -0.3853653192       -5.0323963754        0.5716973252
 C         -1.7033264396       -4.3199627562        0.5889639027
 H         -2.5235683224       -4.7328816206        0.0209961732
 H         -2.0080070758       -3.8280597103        1.5014265457
 H         -0.3029703789       -5.9387959468       -0.0091136320
 H          0.1999606772       -5.0335830970        1.4788825021
 H         -0.5810059579       -3.7448595630       -1.2357852215
 O         -1.3911895907       -0.9547507040        2.3022758011
