  62
        -98.93446317
 C         -2.3008247482       -0.9817245788        0.1968633916
 C         -3.0566508306       -0.1869605216        1.0942586635
 C         -3.9492820089        0.8358056489        0.5168194996
 C         -4.0002772956        0.9626734569       -0.8218669863
 C         -4.8482836236        1.8970293273       -1.6437835517
 C         -6.3183246432        1.4560895605       -1.7187083525
 C         -6.9251259072        1.0178194102       -0.3886829968
 H         -7.9312895455        0.6415000141       -0.5914901353
 H         -6.3435135940        0.1864930464        0.0136543675
 C         -7.0403494102        2.1151694935        0.6667330750
 H         -7.6378586715        2.9368587549        0.2658146093
 H         -7.5848711885        1.6921184673        1.5147247314
 C         -5.7184764352        2.6824615322        1.1896382422
 H         -5.2887935053        3.3927885725        0.4883450285
 H         -5.9435273439        3.2443051011        2.1007743253
 C         -4.6822415112        1.6301389889        1.5707020572
 H         -3.8996402682        2.1104620761        2.1701550231
 H         -5.1439053826        0.8950083647        2.2396610057
 H         -6.3833336836        0.6117354059       -2.4094685705
 H         -6.9030946208        2.2779333415       -2.1354542426
 H         -4.7681567913        2.9097106662       -1.2598022731
 H         -4.4317167934        1.8902658662       -2.6536173176
 O         -3.2570612866        0.1753874756       -1.6498006529
 C         -2.3886758266       -0.7976969282       -1.1825048385
 O         -1.7775848470       -1.3963217573       -2.0890465911
 H          0.1657024484       -0.7285190761       -0.9796841972
 C          0.6599078632       -0.8261857285       -0.0237621943
 C          0.0048447512       -1.4703736533        1.0166098077
 C          0.6615122608       -1.6033602122        2.2340476691
 C          1.9406513653       -1.1016394216        2.4013390438
 C          2.5870836748       -0.4542290093        1.3637290263
 C          1.9400919380       -0.3168675436        0.1422653193
 N          2.5733153406        0.3577054023       -0.9146889795
 S          4.1598461881       -0.0401719294       -1.2886899831
 O          4.3302030036        0.3390023895       -2.6739075558
 O          4.4534671895       -1.4153399393       -0.9575243747
 C          5.1212054073        1.0551307488       -0.2656242208
 C          4.8469269587        2.4074747018       -0.3258686438
 C          5.5908847824        3.2764915317        0.4559898161
 C          6.5929708719        2.7818598172        1.2776781175
 C          6.8586325468        1.4219529907        1.3239031865
 C          6.1171853325        0.5469243405        0.5450151724
 H          6.2836890404       -0.5184676596        0.5532252901
 H          7.6382208517        1.0396407904        1.9629889450
 H          7.1698233971        3.4608065323        1.8855938026
 H          5.3865596940        4.3345811104        0.4228094253
 H          4.0610318907        2.7508427371       -0.9779202482
 H          2.0094218861        0.4130631362       -1.7507291474
 H          3.5820612535       -0.0598550203        1.4892841511
 H          2.4393529520       -1.2116321300        3.3520429350
 H          0.1583244886       -2.0936973604        3.0543576342
 C         -1.3843710117       -2.0213386014        0.8165976408
 H         -1.8100646953       -2.2085053548        1.8151063100
 C         -1.3886561725       -3.3464529811        0.0660464582
 C         -0.2224221673       -3.8635759204       -0.7166183518
 C         -0.5920461960       -4.5072028914        0.5841408407
 H         -1.0378804041       -5.4900721501        0.5692467817
 H          0.0569886031       -4.3267414622        1.4277462738
 H         -0.4318907439       -4.3861763931       -1.6376613214
 H          0.6782088546       -3.2701044712       -0.7555755014
 H         -2.3693754538       -3.5747113843       -0.3395266058
 O         -2.9968854513       -0.3302218901        2.3451703170
