  62
        -98.94049690
 C          1.1926013149        1.4034777331        0.6578733214
 C          1.9228305152        1.0867809538       -0.5165012822
 C          3.0076645809        0.1022681326       -0.3506695903
 C          3.1614311597       -0.5246559614        0.8281954334
 C          4.2245128139       -1.5401961854        1.1326961240
 C          3.7729187094       -2.9707939621        0.8108649877
 C          3.1558905288       -3.1256888227       -0.5782617570
 H          2.9047229352       -4.1807796142       -0.7045387664
 H          2.2248444848       -2.5571936868       -0.6190078356
 C          4.0617616454       -2.6786332365       -1.7329872518
 H          5.0969171423       -2.6179782044       -1.3949939593
 H          4.0227953489       -3.4316637354       -2.5226516433
 C          3.6552206022       -1.3466574434       -2.3646226260
 H          2.5909078842       -1.3652596397       -2.6112325146
 H          4.2066883794       -1.2310969153       -3.3014855172
 C          3.9330708643       -0.0983293106       -1.5187918772
 H          4.9722054976       -0.1091567167       -1.1813434485
 H          3.7915258704        0.7737709431       -2.1639919530
 H          4.6369889461       -3.6312616245        0.9046834381
 H          3.0330941427       -3.2777741016        1.5537997267
 H          5.1167376556       -1.2957062237        0.5583220441
 H          4.4622357662       -1.4744354869        2.1961462974
 O          2.3336747056       -0.3115356677        1.8846191265
 C          1.3597852020        0.6726057633        1.8380071785
 O          0.7111265493        0.7911177588        2.8980643279
 H         -1.9933009389        0.9488645759        0.8902124627
 C         -1.9409761849        1.4159407939       -0.0808717580
 C         -0.9023599698        2.2953428956       -0.3570663022
 C         -0.8690441430        2.9284641862       -1.5924954549
 C         -1.8480492237        2.6619509912       -2.5332539485
 C         -2.8742452440        1.7748173459       -2.2613624874
 C         -2.9267953266        1.1512827851       -1.0186898094
 N         -3.9837600612        0.2909677380       -0.7034812806
 S         -3.9684533874       -0.8167446516        0.5347520486
 O         -5.1769734957       -1.5829641053        0.3208450373
 O         -3.8581814481       -0.1486017981        1.8067301577
 C         -2.5614044045       -1.8764964380        0.2554426258
 C         -2.6434444951       -2.7817899213       -0.7852728031
 C         -1.5838492814       -3.6432399710       -1.0133022353
 C         -0.4612247462       -3.5847164647       -0.2013853493
 C         -0.3903901985       -2.6662709561        0.8339338798
 C         -1.4496820621       -1.8039882676        1.0692384124
 H         -1.4182577128       -1.0896135435        1.8778650279
 H          0.4822544841       -2.6090005125        1.4663773057
 H          0.3607416565       -4.2615058474       -0.3716440606
 H         -1.6349563784       -4.3593656945       -1.8174483749
 H         -3.5420558137       -2.8120376354       -1.3794584576
 H         -4.5907255484        0.0326830503       -1.4653135866
 H         -3.6364725745        1.5723594064       -2.9979465434
 H         -1.8103407983        3.1503882839       -3.4951659774
 H         -0.0632568456        3.6065433566       -1.8200314173
 C          0.1461359282        2.5058805433        0.7053710387
 H         -0.3485111766        2.3766282126        1.6818532136
 C          0.7102927763        3.9201226872        0.6988494201
 C          1.9236203335        4.2546175027        1.5140207139
 C          1.9837439238        4.3176636247        0.0188823117
 H          2.0218753332        5.2905461277       -0.4492046856
 H          2.5417280647        3.5607033710       -0.5069985817
 H          1.9340937636        5.1771102450        2.0746553484
 H          2.4250774861        3.4353949181        2.0099353363
 H         -0.0858100978        4.6591369475        0.6972168269
 O          1.7222442158        1.6055449309       -1.6425357582
