  62
        -98.94241723
 C         -2.1332391498       -0.2414243703        0.4877894606
 C         -1.3970957602        0.7310370601        1.2023268505
 C         -1.5165339009        2.1266137500        0.7484008305
 C         -2.2615893412        2.3995127197       -0.3364201094
 C         -2.6058992119        3.7309204595       -0.9608466193
 C         -1.5511597525        4.8393539300       -0.9569638995
 C         -0.1245352423        4.3668640107       -1.2707029796
 H         -0.1368693118        3.3316537007       -1.6195442696
 H          0.2853231273        4.9769884309       -2.0780513197
 C          0.8176640178        4.4694988812       -0.0705507897
 H          0.6503781974        5.4209393411        0.4397699703
 H          1.8480240578        4.4634629217       -0.4348516898
 C          0.6861038085        3.3222720611        0.9272660703
 H          0.9721004289        2.3929347813        0.4274501502
 H          1.3986153985        3.4915171415        1.7385626202
 C         -0.7180292013        3.1323846304        1.5288885504
 H         -0.6049147510        2.7092554805        2.5309381004
 H         -1.2404356518        4.0822299602        1.6154831805
 H         -1.5588229126        5.3517397100        0.0036935605
 H         -1.8662977929        5.5692886299       -1.7052117494
 H         -2.8780926219        3.4955403894       -1.9933392593
 H         -3.5119361421        4.1007036391       -0.4695388892
 O         -2.9013219808        1.4195960494       -1.0379178393
 C         -2.8376229701        0.0865227394       -0.6687013293
 O         -3.4490429198       -0.6830699909       -1.4353864193
 H          0.4376035206       -1.1281098390        0.2593549903
 C          0.0709225609       -1.9333546692       -0.3550897597
 C         -1.2132930788       -2.4161239498       -0.1339117595
 C         -1.6739094384       -3.4654330700       -0.9156942195
 C         -0.8732404582       -3.9826290096       -1.9210421296
 C          0.3775739915       -3.4538359590       -2.1803279697
 C          0.8534178911       -2.4108672988       -1.3904268898
 N          2.1145939708       -1.8464175282       -1.6188066199
 S          2.4571385200       -0.2395689480       -1.2772932599
 O          1.2692330296        0.5787394014       -1.2414449798
 O          3.4500473397        0.1256762625       -2.2676446100
 C          3.2647075102       -0.3258177876        0.3098709000
 C          4.5764721204       -0.7639277670        0.3077919798
 C          5.2574105606       -0.8685088166        1.5084748697
 C          4.6184504006       -0.5344167869        2.6934654698
 C          3.3043919704       -0.0960331776        2.6804849200
 C          2.6162302402        0.0101004221        1.4805394600
 H          1.5911259700        0.3478898416        1.4657558702
 H          2.7982952304        0.1646798122        3.5963396800
 H          5.1460967807       -0.6139585167        3.6308387098
 H          6.2805253608       -1.2082043661        1.5178159896
 H          5.0382107804       -0.9978261567       -0.6370426602
 H          2.5761717708       -2.1567643179       -2.4604267600
 H          0.9809110416       -3.8371134087       -2.9892820698
 H         -1.2407816179       -4.7957248498       -2.5289751695
 H         -2.6620552181       -3.8639599905       -0.7553413894
 C         -2.0330683690       -1.6995340902        0.9108772706
 H         -1.4628516089       -1.6937574799        1.8510088805
 C         -3.3932652687       -2.3095223209        1.1626858707
 C         -3.5118671380       -3.5287737710        2.0263688607
 C         -3.9990593686       -2.2040780912        2.5290896308
 H         -5.0632094087       -2.0401486417        2.6082923409
 H         -3.4226800088       -1.7021983709        3.2924290307
 H         -4.2433124277       -4.2776623313        1.7633799908
 H         -2.6035703377       -3.9289465705        2.4505600006
 H         -4.0600128588       -2.2159790112        0.3136428808
 O         -0.6771249799        0.4481277104        2.1991565404
