  62
        -98.93831229
 C         -1.1019286711       -1.3309202871        0.7761154754
 C         -2.2604954935       -1.4916891270       -0.0183909736
 C         -3.2786295929       -0.4262204018        0.0864651367
 C         -3.0310599478        0.6456944387        0.8579165076
 C         -3.8908252754        1.8663202536        1.0418639840
 C         -3.5156800602        2.9574616655        0.0241959492
 C         -4.2614311899        2.8858290324       -1.3069360079
 H         -5.3098802762        3.1471829922       -1.1489934456
 H         -3.8306592412        3.6456576710       -1.9630198766
 C         -4.1937473060        1.5300085003       -2.0131494996
 H         -3.1785267249        1.1334192202       -1.9525204818
 H         -4.4173944670        1.6884466584       -3.0699055062
 C         -5.1846467133        0.5054341604       -1.4425974718
 H         -5.7708496050        0.0742357708       -2.2570718740
 H         -5.8931499809        1.0151589241       -0.7900726152
 C         -4.5425277096       -0.6695278304       -0.6942201939
 H         -5.2844315431       -1.1085231029       -0.0180240710
 H         -4.2761615943       -1.4518494938       -1.4120391050
 H         -2.4415881674        2.8847963563       -0.1574464178
 H         -3.7139748726        3.9344530774        0.4695255534
 H         -3.6844993501        2.2398551736        2.0468106931
 H         -4.9440074162        1.6100112817        0.9756515870
 O         -1.8766463445        0.7843587411        1.5689096342
 C         -0.9038523102       -0.1943371620        1.5650921127
 O          0.0758926458        0.0513290674        2.2963240465
 O         -2.4605310090       -2.4707985843       -0.7841310302
 C          0.0361927825       -2.3417620639        0.7749005756
 C          0.8635934403       -2.0878870097       -0.4616094282
 C          0.5656365958       -2.6570212254       -1.6944241262
 C          1.3150313043       -2.3298528680       -2.8104307810
 C          2.3649329202       -1.4334223276       -2.7226693591
 C          2.6708160197       -0.8596314762       -1.4925232879
 C          1.9227501024       -1.1931056110       -0.3733956478
 H          2.1628307688       -0.7462322216        0.5801345634
 N          3.7348225189        0.0392913917       -1.3779352903
 S          3.9832939996        1.0262672503       -0.0676163538
 O          4.9857142378        1.9641052126       -0.5314491542
 O          4.3534918209        0.2442307082        1.0860960184
 C          2.4700791543        1.9179149892        0.2434855426
 C          1.6755382156        2.3172122105       -0.8122186673
 C          0.5494619288        3.0801348004       -0.5492653533
 C          0.2431966416        3.4368130275        0.7549250661
 C          1.0485632075        3.0244264487        1.8032615578
 C          2.1727790360        2.2577118678        1.5467839227
 H          2.8153026392        1.9038612841        2.3369717037
 H          0.8004178615        3.2861516652        2.8190469397
 H         -0.6306226042        4.0356915170        0.9592807378
 H         -0.0841537169        3.3952156888       -1.3638786534
 H          1.9328572974        2.0303740508       -1.8191224348
 H          4.1434008795        0.3784047291       -2.2342086335
 H          2.9465486679       -1.1785752763       -3.5951298564
 H          1.0748324976       -2.7750035508       -3.7640811409
 H         -0.2706042553       -3.3314674961       -1.7790588095
 H          0.6580774392       -2.0913136370        1.6453496165
 C         -0.4256530101       -3.7763878582        0.9133635964
 C          0.5777581662       -4.8231226182        1.2900579204
 C         -0.4697102679       -4.3997651261        2.2746172835
 H         -1.2726627935       -5.0850841103        2.5013646545
 H         -0.1643843162       -3.7926110394        3.1148416094
 H          0.4968702682       -5.8012891443        0.8415247166
 H          1.5941036889       -4.5003263793        1.4615757523
 H         -1.2093730280       -4.0524407735        0.2211269959
