  62
        -98.94231051
 C          1.8946646191        0.6104539767        0.0925453611
 C          2.9475937358        0.4479993883        1.0312355085
 C          4.0476318276       -0.4412661448        0.6387196312
 C          3.9951640620       -1.0595919889       -0.5546509943
 C          5.0679268161       -1.9505621539       -1.1089719918
 C          6.0795670152       -1.1514040784       -1.9423494519
 C          6.6035836285        0.1021808206       -1.2417430982
 H          7.3313479410        0.5678423332       -1.9097905299
 H          5.7816756342        0.8109820082       -1.1175941622
 C          7.2560622339       -0.1590578697        0.1229906044
 H          7.5146327274       -1.2146468273        0.2143566146
 H          8.1872118439        0.4085562498        0.1803875509
 C          6.4046095251        0.2594373254        1.3231460340
 H          6.0651922615        1.2897470220        1.1901950409
 H          7.0379588172        0.2363133109        2.2139068219
 C          5.1796802200       -0.6178310876        1.6110662049
 H          5.4818746414       -1.6659274889        1.6636837546
 H          4.7833941287       -0.3252981981        2.5878493000
 H          6.9154403479       -1.8074838671       -2.1919136400
 H          5.5969849627       -0.8467526893       -2.8739337551
 H          5.5746214052       -2.4531483540       -0.2872682176
 H          4.5971802824       -2.7010502012       -1.7464483449
 O          2.9624936064       -0.9024482678       -1.4182907440
 C          1.8882866014       -0.0684313922       -1.1264565396
 O          1.0258505524       -0.0425390566       -2.0245498812
 H         -0.5533253537       -0.5908847651       -0.4836953214
 C         -0.9527296858       -0.2711512739        0.4675798117
 C         -0.3810336985        0.8163447322        1.1144529657
 C         -0.9118280410        1.2174345200        2.3345439581
 C         -1.9835173571        0.5425055980        2.8938048184
 C         -2.5502600875       -0.5402667554        2.2461810598
 C         -2.0291476073       -0.9465871936        1.0241313512
 N         -2.6068419101       -2.0390399536        0.3462581488
 S         -4.2495817086       -1.9395598051        0.0250411365
 O         -4.9827723057       -2.1666471875        1.2451074574
 O         -4.4910063488       -2.8770674103       -1.0475825913
 C         -4.4977696138       -0.2654341354       -0.5345444177
 C         -4.1752467113        0.0398361893       -1.8420500565
 C         -4.2921545570        1.3514094213       -2.2726801474
 C         -4.7138578773        2.3327075838       -1.3885061148
 C         -5.0335013350        2.0098385863       -0.0790018086
 C         -4.9263165591        0.6984773704        0.3559004088
 H         -5.1728834334        0.4054007423        1.3627505867
 H         -5.3617481837        2.7749210963        0.6057537733
 H         -4.7916905360        3.3546579835       -1.7234794894
 H         -4.0439410495        1.6038058026       -3.2909787543
 H         -3.8488246805       -0.7503087780       -2.4995241840
 H         -2.1066874215       -2.2859293832       -0.4961735894
 H         -3.3852709090       -1.0783566062        2.6648527525
 H         -2.3808774394        0.8612798245        3.8452076674
 H         -0.4695414872        2.0559793447        2.8519184396
 C          0.7746082999        1.5561007710        0.4912908014
 H          1.2175204018        2.1904994403        1.2751800073
 C          0.3400227999        2.4781120184       -0.6408782069
 C         -0.9648225822        2.3572219922       -1.3629514354
 C         -0.7420743651        3.4921312037       -0.4122641103
 H         -0.6109257260        4.4868192760       -0.8097462487
 H         -1.2616943632        3.4554478852        0.5331306811
 H         -1.6446257956        1.5731090946       -1.0697570835
 H         -0.9659260838        2.5548845154       -2.4236993464
 H          1.1872662088        2.7982107693       -1.2397015432
 O          2.9665840081        1.0310912915        2.1480964557
