  62
        -98.94796606
 C          0.7815376397        1.1966349102        0.5784940801
 C          1.2317207699        0.7591077903       -0.6903544898
 C          2.1655281398       -0.3753133398       -0.6787969798
 C          2.4963624495       -0.9453388100        0.4939701602
 C          3.5281449993       -2.0224947901        0.6596006903
 C          4.9156818493       -1.4170834103        0.9183993707
 C          5.3100207797       -0.3261679802       -0.0775188191
 H          4.6506162597        0.5345250899        0.0561405109
 H          6.3195085396        0.0006354897        0.1816082612
 C          5.2761087899       -0.7659815100       -1.5480088292
 H          5.2845771298       -1.8546279000       -1.6096135293
 H          6.1818629701       -0.4070007800       -2.0413267689
 C          4.0891733602       -0.2214112497       -2.3450923994
 H          4.0282350802        0.8620822002       -2.2155634592
 H          4.2743797204       -0.4136999496       -3.4051919993
 C          2.7213482900       -0.8248328497       -2.0002454597
 H          2.0079291902       -0.4826948195       -2.7552766098
 H          2.7771186999       -1.9134735897       -2.0450850799
 H          5.6533857493       -2.2211657404        0.8896643007
 H          4.9245956492       -0.9839239304        1.9213726407
 H          3.2511510891       -2.6438513602        1.5119332201
 H          3.5564434095       -2.6354568600       -0.2382198898
 O          1.9707086393       -0.5535825801        1.6835155102
 C          1.1155943294        0.5333567600        1.7578779701
 O          0.7253419991        0.8048094899        2.9128643401
 H         -1.6179992604        0.2548194704        0.4838667395
 C         -2.0034453402        1.0454757606       -0.1436869105
 C         -1.3381887400        2.2642363805       -0.1774581602
 C         -1.8529916998        3.2812710907       -0.9709871501
 C         -2.9977323596        3.0707191609       -1.7198737604
 C         -3.6531466898        1.8542031709       -1.6884658107
 C         -3.1484275700        0.8309609508       -0.8925894007
 N         -3.7654140602       -0.4247858292       -0.8696955010
 S         -3.5683508205       -1.4903119594        0.3912981189
 O         -4.5727472106       -2.5060459292        0.1531529185
 O         -3.6398384808       -0.8324797695        1.6757857189
 C         -1.9607779406       -2.2109648695        0.1412006191
 C         -1.5558399103       -2.5205329693       -1.1415794709
 C         -0.3352871504       -3.1498354694       -1.3231441107
 C          0.4491382594       -3.4676587797       -0.2256038106
 C          0.0312929891       -3.1451260098        1.0557361194
 C         -1.1842170308       -2.5080207697        1.2431375992
 H         -1.5382760910       -2.2259384098        2.2228695092
 H          0.6444145389       -3.3814841600        1.9107768695
 H          1.3906036094       -3.9736064697       -0.3665489704
 H         -0.0016757802       -3.3934461393       -2.3188829707
 H         -2.1925066501       -2.2643898092       -1.9719712310
 H         -4.6586182001       -0.4972081290       -1.3318017412
 H         -4.5434035697        1.6905791811       -2.2759470009
 H         -3.3862196994        3.8670953210       -2.3364047104
 H         -1.3569366097        4.2371545306       -1.0076355099
 C         -0.1057095402        2.4233968103        0.6781791501
 H         -0.4299773904        2.4828604301        1.7283564701
 C          0.7013237700        3.6627257302        0.3449130105
 C          0.3825044800        4.9753717502        0.9931989506
 C          1.6201138898        4.2269287400        1.3850335807
 H          2.5791995699        4.6131018499        1.0737699210
 H          1.6394500796        3.7337767298        2.3464598907
 H          0.4952918302        5.8791656402        0.4134139407
 H         -0.4365864902        5.0002819101        1.6961520504
 H          1.0460929402        3.6679466003       -0.6830110595
 O          0.8874840402        1.2988389205       -1.7735167898
