  62
        -98.94415046
 C         -2.5171496172       -1.1516119401       -0.0881846167
 C         -3.2404368965       -0.4015221667        0.8689023152
 C         -4.0232194114        0.7221875767        0.3428052076
 C         -4.0243084185        0.9734277455       -0.9793960275
 C         -4.7925085073        2.0668015679       -1.6714577896
 C         -4.0831705232        3.4279180440       -1.6677830289
 C         -4.0574914967        4.1444781089       -0.3170932430
 H         -3.7267959884        5.1682389027       -0.5027754561
 H         -5.0696303983        4.1971743789        0.0850409437
 C         -3.1229811251        3.5053687755        0.7197722402
 H         -2.5260071582        4.2828988594        1.2022634009
 H         -2.4241328094        2.8339459582        0.2145131148
 C         -3.8400769547        2.7321415752        1.8268068015
 H         -3.0844683605        2.2944222306        2.4850059505
 H         -4.4440418639        3.4204425811        2.4221154790
 C         -4.7436610097        1.5990710160        1.3222701647
 H         -5.0269757014        0.9804153386        2.1773791796
 H         -5.6472200406        2.0105330444        0.8731627312
 H         -3.0605987869        3.2899952478       -2.0267774356
 H         -4.6032614540        4.0680693811       -2.3838817737
 H         -5.7779050876        2.1671522085       -1.2157432854
 H         -4.9188374339        1.7480004082       -2.7082424839
 O         -3.3171262650        0.2262779872       -1.8677268636
 C         -2.5280799039       -0.8355898823       -1.4470823182
 O         -1.9051445622       -1.4049052702       -2.3618874639
 O         -3.2284792897       -0.6558897469        2.1044788310
 C         -1.6668819597       -2.3174334514        0.3807002526
 C         -0.2117100687       -2.0668750613        0.0662094359
 C          0.6282589894       -3.0280357577       -0.4799105595
 C          1.9579206462       -2.7355414533       -0.7313917911
 C          2.4788226097       -1.4877893933       -0.4444254052
 C          1.6521363297       -0.5227240714        0.1166333592
 C          0.3226775896       -0.8207283057        0.3718936013
 H         -0.3194766272       -0.0674165344        0.8132557678
 N          2.1686296677        0.7529294254        0.4051038011
 S          3.5893256392        0.8523043474        1.2956459563
 O          3.7383968200       -0.2794250241        2.1809229758
 O          3.5514223367        2.1565514824        1.9204617219
 C          4.8713712731        0.8367293504        0.0608280065
 C          4.8255288941        1.7912319329       -0.9363049661
 C          5.8197421772        1.7983692721       -1.9014864023
 C          6.8384078716        0.8582660828       -1.8517411734
 C          6.8720514875       -0.0912771501       -0.8420628217
 C          5.8800647307       -0.1043814235        0.1262544731
 H          5.8617480180       -0.8267328168        0.9267159993
 H          7.6650000424       -0.8208271279       -0.8053190016
 H          7.6105176506        0.8660477374       -2.6047744045
 H          5.7968242003        2.5352262195       -2.6882028686
 H          4.0185639760        2.5049213656       -0.9374173541
 H          1.4798830538        1.3959169696        0.7678986174
 H          3.5115066343       -1.2551006532       -0.6461537568
 H          2.5971191885       -3.4907508594       -1.1625500568
 H          0.2414695436       -4.0062608634       -0.7130079346
 H         -1.7760169102       -2.3356925930        1.4761176142
 C         -2.1952287183       -3.6204545993       -0.1810611946
 C         -2.0209053101       -4.8988423689        0.5815087332
 C         -3.3749464362       -4.2654524642        0.4803337659
 H         -4.1217291500       -4.7355714377       -0.1416528432
 H         -3.7803185160       -3.7781443716        1.3553085119
 H         -1.8404462185       -5.8086356870        0.0291149541
 H         -1.5084780745       -4.8491701004        1.5304960678
 H         -2.1472141834       -3.6559724785       -1.2635043005
