  62
        -98.93647181
 C         -1.1261496904       -1.3155881098        0.2276168908
 C         -1.8522598602       -0.5184107991        1.1465817404
 C         -2.7089278000        0.5449941708        0.5899947399
 C         -2.7396517000        0.7293371201       -0.7425495102
 C         -3.5130467999        1.7027777198       -1.6087450906
 C         -4.5331507896        2.6512659303       -0.9862564011
 C         -5.8314355398        1.9737373508       -0.5432021407
 H         -6.4054008099        1.7160432605       -1.4369639905
 H         -6.4196384296        2.6914624613        0.0322466590
 C         -5.6640519100        0.6956149012        0.2751008100
 H         -5.0996371902       -0.0393573092       -0.3020318397
 H         -6.6586066801        0.2749857715        0.4468414303
 C         -4.9965570899        0.8764550218        1.6358855599
 H         -5.0429047401       -0.0823200279        2.1600860904
 H         -5.5563283197        1.6051064522        2.2259473795
 C         -3.5247422598        1.3136682815        1.5905585296
 H         -3.0817190498        1.1034869419        2.5685578496
 H         -3.4414594596        2.3837846814        1.4190330690
 H         -4.7919788395        3.3855333200       -1.7537404915
 H         -4.0824424495        3.2015055007       -0.1654063714
 H         -4.0095579600        1.0980604695       -2.3750504503
 H         -2.7579262298        2.2948543994       -2.1365051310
 O         -1.9608829802       -0.0110854105       -1.5823444698
 C         -1.1268116404       -1.0271850205       -1.1370821593
 O         -0.4691244806       -1.5623930511       -2.0459036591
 O         -1.7866864502       -0.6845543085        2.3943850505
 C         -0.2674052106       -2.4315185396        0.7973460314
 C          1.1561367194       -2.2628076602        0.3361863112
 C          1.7180285192       -3.0160866108       -0.6861098084
 C          3.0135534992       -2.7698703913       -1.1067087286
 C          3.7795606794       -1.7853224912       -0.5080279192
 C          3.2306960597       -1.0379528405        0.5248500005
 C          1.9271093196       -1.2731020600        0.9339468406
 H          1.4944588998       -0.6760684595        1.7276228803
 N          4.0153840199       -0.0346081404        1.1437122699
 S          4.2631878201        1.3445737491        0.2281731592
 O          4.9161059600        0.9753638283       -1.0000687607
 O          4.9737242804        2.2647169394        1.0862484786
 C          2.6238033103        1.9663655193       -0.0981785111
 C          2.0733711005        2.8798133198        0.7791356085
 C          0.7746467006        3.3122203700        0.5688134083
 C          0.0519023304        2.8231197696       -0.5085292214
 C          0.6186530002        1.9062865490       -1.3802005310
 C          1.9151311901        1.4643014589       -1.1705690208
 H          2.3795726399        0.7434072384       -1.8243105204
 H          0.0554985601        1.5169148787       -2.2138639907
 H         -0.9607904695        3.1581185697       -0.6684918015
 H          0.3278830108        4.0249702705        1.2431258679
 H          2.6748256006        3.2418167801        1.5977138282
 H          3.6582746200        0.2399697302        2.0490592298
 H          4.7845192395       -1.5719677116       -0.8339655893
 H          3.4329902390       -3.3527763118       -1.9126433383
 H          1.1271639090       -3.7757483110       -1.1708670280
 H         -0.2918557405       -2.2584346791        1.8855745113
 C         -0.8058437709       -3.8367513196        0.5762752521
 C         -2.2793170710       -4.1039312993        0.6449441823
 C         -1.5488803911       -4.2602417501       -0.6533918676
 H         -1.3804961313       -5.2600508404       -1.0267307971
 H         -1.7088914110       -3.5293209305       -1.4293873980
 H         -2.6224231112       -4.9903803190        1.1567502328
 H         -2.9317330408       -3.2504872691        0.7617016519
 H         -0.1595949711       -4.5835971495        1.0280688725
