  62
        -98.94433780
 C          2.2682275954        1.0506750451        0.2663620216
 C          2.4360811779       -0.0778855076       -0.5721066786
 C          3.3853999521       -1.0932783769       -0.0956968410
 C          3.9869623496       -0.9499955851        1.0982016381
 C          4.9532299647       -1.9150511138        1.7292981108
 C          6.4034062280       -1.7457113264        1.2554907470
 C          6.6824281637       -2.2220309835       -0.1706179400
 H          6.3170345992       -3.2425731782       -0.2895269541
 H          7.7670406853       -2.2480177991       -0.2926985224
 C          6.0842435457       -1.3277392667       -1.2655199489
 H          6.8337813449       -1.1489859975       -2.0396885292
 H          5.8248417502       -0.3554501644       -0.8404624450
 C          4.8508863895       -1.9101005432       -1.9559465494
 H          5.1277511389       -2.8170735433       -2.4979912365
 H          4.4887289597       -1.1798109441       -2.6840054453
 C          3.6938715398       -2.2445510863       -1.0052506015
 H          3.9292064328       -3.1360375652       -0.4241956566
 H          2.8019931572       -2.4448867093       -1.6044470993
 H          7.0369310585       -2.3177080848        1.9372492572
 H          6.6800205596       -0.6930436315        1.3489387366
 H          4.6243109914       -2.9379256442        1.5431674326
 H          4.9183202839       -1.7294416651        2.8050151344
 O          3.7586777058        0.1217304877        1.9019330818
 C          2.9236038437        1.1484984973        1.4990144399
 O          2.8438074459        2.0877067759        2.3157471675
 O          1.8397711181       -0.2559128264       -1.6687740178
 C          1.3676833316        2.2272722071       -0.0830583050
 C         -0.0766096390        1.8948117975        0.2070532823
 C         -0.7501217370        2.5121909680        1.2546973685
 C         -2.0661755412        2.1881917819        1.5336097267
 C         -2.7355130954        1.2429768173        0.7768611537
 C         -2.0661974284        0.6097184200       -0.2619055182
 C         -0.7501805655        0.9441272047       -0.5464043008
 H         -0.2286233659        0.4353044337       -1.3434595611
 N         -2.7321715614       -0.3605327885       -1.0325484041
 S         -3.5245390354       -1.5965014557       -0.2176157096
 O         -2.9237794511       -1.8554835188        1.0711876421
 O         -3.5606380466       -2.7054146220       -1.1462296824
 C         -5.1784385320       -0.9687132851       -0.0075711860
 C         -5.8754492329       -0.5834265914       -1.1361122047
 C         -7.1649930265       -0.0970840265       -0.9928300280
 C         -7.7341306767       -0.0078078797        0.2689221283
 C         -7.0229669712       -0.4024877448        1.3917024714
 C         -5.7319456664       -0.8890519174        1.2552321013
 H         -5.1393826245       -1.2034237426        2.0998233179
 H         -7.4669594057       -0.3331584775        2.3717620448
 H         -8.7379460123        0.3713612127        0.3779423845
 H         -7.7212612253        0.2101745507       -1.8637217932
 H         -5.3984626151       -0.6735900906       -2.0977130748
 H         -2.1577391755       -0.7384740603       -1.7730621189
 H         -3.7590825185        0.9832240206        0.9921973568
 H         -2.5766002801        2.6760589327        2.3500287142
 H         -0.2267657784        3.2364154931        1.8621965335
 H          1.6655363905        3.0362203434        0.5971614568
 C          1.5541484474        2.7087618470       -1.5087647638
 C          1.1305383839        4.1005074216       -1.8652972130
 C          2.5871218866        3.7539234625       -1.7982808312
 H          3.1464264075        3.6837817550       -2.7192046073
 H          3.1640502048        4.1305120505       -0.9658642840
 H          0.6867565616        4.2711696892       -2.8339827640
 H          0.7199448974        4.7144076998       -1.0780201566
 H          1.4147926508        1.9331907234       -2.2498268683
