  62
        -98.93987018
 C          2.6125934386        1.1476898212        0.2623099331
 C          2.4028637683        0.3163946155       -0.8629169003
 C          3.0093861349       -1.0259515021       -0.8078942546
 C          3.7515977909       -1.3759386797        0.2594966803
 C          4.5225857867       -2.6448174834        0.5583728818
 C          4.2194897484       -3.9361271194       -0.1979300883
 C          2.8275708643       -4.5169405969        0.0510923500
 H          2.6928248031       -5.3759213885       -0.6096128435
 H          2.7789959331       -4.8789609683        1.0812089483
 C          1.6615751239       -3.5510938757       -0.1507531528
 H          1.7219638153       -2.7438295160        0.5831739767
 H          0.7324092672       -4.0916829573        0.0526000044
 C          1.5431581580       -2.9422923330       -1.5473757178
 H          0.5884308137       -2.4076764548       -1.5890632226
 H          1.5099365576       -3.7396409496       -2.2925382198
 C          2.6551161343       -1.9502817374       -1.9355661082
 H          3.5359539657       -2.4672374812       -2.3085115392
 H          2.2744530230       -1.3189002029       -2.7435984939
 H          4.3862368099       -3.7978788816       -1.2619507283
 H          4.9496110904       -4.6744057189        0.1444252893
 H          5.5789075074       -2.3968504948        0.4067608288
 H          4.3975268202       -2.8211493673        1.6313118316
 O          3.9679518727       -0.5162024368        1.2988980259
 C          3.3773592569        0.7356359428        1.3496171945
 O          3.6034598312        1.3702145865        2.4004199839
 O          1.7374239114        0.6736398272       -1.8690748241
 C          1.9378087026        2.5056771823        0.3289352958
 C          0.4500944158        2.3321445929        0.1335962117
 C         -0.3147789824        3.1431091391       -0.6939268161
 C         -1.6673429285        2.8982297704       -0.8596976979
 C         -2.2860385276        1.8480779688       -0.2069262349
 C         -1.5330798340        1.0389720508        0.6340018788
 C         -0.1829098486        1.2944948707        0.8071455385
 H          0.4017075129        0.6560594829        1.4602217067
 N         -2.1537524349       -0.0343960894        1.3064644043
 S         -2.8582112647       -1.2150559856        0.3333539054
 O         -2.8827372327       -2.4099549650        1.1500135870
 O         -2.1934350079       -1.3238083519       -0.9440712955
 C         -4.5241541410       -0.6274858351        0.1139786866
 C         -5.0126461411       -0.3967471071       -1.1568638867
 C         -6.3128112172        0.0627175870       -1.3008124951
 C         -7.0959221864        0.2817176733       -0.1777721370
 C         -6.5906126336        0.0424309115        1.0917236391
 C         -5.2924742546       -0.4181156972        1.2425994761
 H         -4.8610791959       -0.6198701903        2.2087936324
 H         -7.2026711881        0.2141895455        1.9624294588
 H         -8.1062450538        0.6412603777       -0.2927304786
 H         -6.7072941632        0.2491203939       -2.2867313090
 H         -4.3631246343       -0.5741853120       -1.9992679328
 H         -1.5456607732       -0.4799511677        1.9796147544
 H         -3.3359562063        1.6468785265       -0.3443964841
 H         -2.2468453484        3.5314243126       -1.5139888086
 H          0.1514301983        3.9584234691       -1.2222980281
 H          2.1133495921        2.8866565144        1.3459205493
 C          2.5709391669        3.4566695865       -0.6652596307
 C          2.6100636593        4.9284854890       -0.3866942188
 C          3.8667733624        4.1165995500       -0.3049835370
 H          4.6143373551        4.2392287801       -1.0741854516
 H          4.2768615077        3.8989156995        0.6707183683
 H          2.4985285823        5.6129436788       -1.2140221849
 H          2.1714082895        5.2748777831        0.5367880835
 H          2.4433700411        3.1285892679       -1.6905163446
