  62
        -98.94016447
 C         -2.2542281782       -0.9760869466        0.4272856188
 C         -2.3045290087        0.0991542221       -0.4946532572
 C         -3.2118779722        1.1999194044       -0.1375467822
 C         -3.8737239697        1.1762592191        1.0323691487
 C         -4.8194060228        2.2309223495        1.5393692627
 C         -6.2511450320        2.0930235752        1.0034444173
 C         -6.4356914548        2.4724379620       -0.4665200111
 H         -7.5103947848        2.5401357936       -0.6465772879
 H         -6.0137101039        3.4627751838       -0.6403580237
 C         -5.8311885579        1.4711336090       -1.4608430930
 H         -5.6424585953        0.5222863999       -0.9531700347
 H         -6.5510445341        1.2688653598       -2.2570374124
 C         -4.5385126355        1.9420272753       -2.1274340545
 H         -4.7438263585        2.8177735162       -2.7468765276
 H         -4.1799805350        1.1437076937       -2.7822308381
 C         -3.4129789034        2.2914519241       -1.1449270893
 H         -2.4832558163        2.3961103356       -1.7095219850
 H         -3.6286884799        3.2358936650       -0.6458832553
 H         -6.5849132872        1.0644176266        1.1593368559
 H         -6.8883720675        2.7433496644        1.6071926027
 H         -4.8468339527        2.1273694514        2.6263562549
 H         -4.4314008160        3.2200771406        1.2944019954
 O         -3.7325086657        0.1633503038        1.9299046756
 C         -2.9356470495       -0.9344111110        1.6458129996
 O         -2.9028548167       -1.7888606282        2.5552187364
 H          0.2673413344       -0.5919769690        1.4676888774
 C          0.7110341536       -0.9237062114        0.5355385502
 C         -0.0171379030       -1.7715690694       -0.2911865307
 C          0.5625761995       -2.1942078677       -1.4793093356
 C          1.8301906660       -1.7635114339       -1.8307267013
 C          2.5436143330       -0.9072884174       -1.0131800972
 C          1.9759841925       -0.4823173830        0.1811950822
 N          2.6859511011        0.4035389170        1.0112916254
 S          4.2699674073        0.0212730857        1.4145311450
 O          4.4820836424       -1.4078253774        1.4274867092
 O          4.5216920837        0.7188926261        2.6569553137
 C          5.2366556606        0.7713847874        0.1212337487
 C          6.1119903758        0.0017796194       -0.6197712794
 C          6.8575836319        0.6090449567       -1.6183105164
 C          6.7162540471        1.9676823437       -1.8557329268
 C          5.8354665098        2.7271548165       -1.0999505737
 C          5.0877668684        2.1264429622       -0.0998821069
 H          4.3949745085        2.6810792317        0.5107510457
 H          5.7280771638        3.7834633318       -1.2872432499
 H          7.2958132379        2.4380202810       -2.6343045047
 H          7.5434222265        0.0206875610       -2.2063641372
 H          6.1841753294       -1.0521149384       -0.4029904737
 H          2.1711358209        0.6954247052        1.8292093650
 H          3.5267324769       -0.5632755803       -1.2896669525
 H          2.2659147166       -2.0937186603       -2.7613641974
 H          0.0144948394       -2.8427275197       -2.1424626447
 C         -1.3878673476       -2.1980814924        0.1762788397
 H         -1.2673068442       -2.6687421531        1.1668248268
 C         -2.0349777676       -3.2432029384       -0.7207947693
 C         -3.5262169471       -3.3719055824       -0.8036384674
 C         -2.7498262436       -2.8815263922       -1.9866450871
 H         -2.6475914006       -3.5386253174       -2.8379368392
 H         -2.8067270674       -1.8365548407       -2.2456182657
 H         -3.9536810987       -4.3627864513       -0.8391790147
 H         -4.1214716806       -2.6611752064       -0.2483314638
 H         -1.4750186840       -4.1734504596       -0.7245697792
 O         -1.6364784919        0.1525690416       -1.5576363962
