  62
        -98.93989894
 C         -1.7217809495       -1.1213969198        0.4311322198
 C         -1.9683772492       -0.0443640900       -0.4560353205
 C         -3.3529983891        0.0798916402       -0.9428502106
 C         -4.2881578594       -0.7881295493       -0.5187049604
 C         -5.7410066393       -0.7378025290       -0.8913138805
 C         -6.5428672091        0.1023764115        0.1126193992
 C         -5.9211958087        1.4662664014        0.4132675888
 H         -6.5870069686        1.9809505819        1.1093729686
 H         -4.9690341488        1.3195227313        0.9283899189
 C         -5.6948256784        2.3474913410       -0.8230766715
 H         -6.3001442385        1.9833117109       -1.6540129714
 H         -6.0309247281        3.3616780112       -0.5972326118
 C         -4.2349969383        2.4517985704       -1.2687396814
 H         -3.6080929383        2.7279493605       -0.4167900015
 H         -4.1597467281        3.2581699502       -2.0033920916
 C         -3.6423182887        1.1916795000       -1.9117396510
 H         -4.2972179087        0.8444470200       -2.7138286909
 H         -2.6779234986        1.4667592596       -2.3498544210
 H         -7.5518207491        0.2394235917       -0.2804812809
 H         -6.6155087194       -0.4543922382        1.0496739293
 H         -5.8395914191       -0.3203359593       -1.8914782507
 H         -6.1315751696       -1.7568287889       -0.8922509202
 O         -4.0199740497       -1.7921831092        0.3543718499
 C         -2.7425670998       -1.9746864894        0.8590783000
 O         -2.6457617702       -2.9127801592        1.6746307603
 H          1.9361016808       -0.1114435010        0.0866723198
 C          1.4617816209        0.4117815294        0.8991025796
 C          0.2882251707       -0.0767582001        1.4513836197
 C         -0.3285643091        0.6518346304        2.4652838994
 C          0.2084010112        1.8466103003        2.9023141591
 C          1.3793311914        2.3321914398        2.3478633290
 C          2.0080301512        1.6096041193        1.3403020892
 N          3.2265951414        2.0545988288        0.8163230292
 S          3.8022067414        1.6382224282       -0.6912030906
 O          4.9582727916        2.4948379278       -0.8621914208
 O          2.8001396815        1.7292895781       -1.7255850507
 C          4.3530956009       -0.0455986120       -0.5090895601
 C          4.1750499207       -0.9205224922       -1.5622850398
 C          4.6237239902       -2.2258602523       -1.4354357994
 C          5.2427159401       -2.6307300222       -0.2630699192
 C          5.4199094203       -1.7381173319        0.7831957505
 C          4.9754447407       -0.4311741018        0.6616393001
 H          5.0943352908        0.2866788084        1.4557505299
 H          5.9016975601       -2.0572757018        1.6933465006
 H          5.5875398997       -3.6480197122       -0.1652494589
 H          4.4872027201       -2.9205667825       -2.2491432592
 H          3.6778230708       -0.5636817923       -2.4508643800
 H          3.5176911217        2.9771089388        1.1014886789
 H          1.8011913317        3.2658329998        2.6876129287
 H         -0.2870667987        2.4067916007        3.6812761289
 H         -1.2454816093        0.2721467608        2.8964630695
 C         -0.3420591796       -1.3759819601        1.0146467500
 H         -0.5247670799       -1.9782386997        1.9203444002
 C          0.5656364402       -2.2069742606        0.1197495603
 C          0.0015963699       -3.2551265307       -0.7908101394
 C          0.6191796303       -2.0171940111       -1.3648865097
 H          1.5775070603       -2.1017387915       -1.8555402796
 H         -0.0238973994       -1.2670664910       -1.7979700000
 H          0.5345164996       -4.1887466109       -0.8878640191
 H         -1.0729344201       -3.3593487304       -0.8304730394
 H          1.5021216801       -2.4533482407        0.6116579605
 O         -1.0935612989        0.7784549696       -0.8303847407
