  62
        -98.94294374
 C         -2.4893080079       -0.8987867678        0.4694902576
 C         -2.5200916382        0.3073571824       -0.2710195846
 C         -3.6581984402        1.1927866618        0.0064698591
 C         -4.5702665072        0.8424016243        0.9314158590
 C         -5.7706830132        1.6513288084        1.3424566450
 C         -6.9892212750        1.4712461486        0.4267838461
 C         -6.8744842011        2.1335497740       -0.9467466063
 H         -7.8703673266        2.1174985959       -1.3940411682
 H         -6.5907735266        3.1790101416       -0.8220748285
 C         -5.8927970618        1.4420689431       -1.9031204570
 H         -5.6781767386        0.4345450216       -1.5392971577
 H         -6.3567821309        1.3347305273       -2.8862332260
 C         -4.5728536850        2.1866941940       -2.1038026269
 H         -3.9410765736        1.5914624233       -2.7679568480
 H         -4.7634731781        3.1456345768       -2.5907797982
 C         -3.7896137856        2.4431778472       -0.8096443660
 H         -4.2708103200        3.2292687367       -0.2282198761
 H         -2.7819218259        2.7706035703       -1.0770095874
 H         -7.1772805953        0.4023842533        0.3016084632
 H         -7.8505309476        1.9016079823        0.9429068702
 H         -6.0420190612        1.3161505836        2.3458446863
 H         -5.5023107239        2.7070800590        1.3895552676
 O         -4.4907227986       -0.3174913570        1.6375103317
 C         -3.4622906691       -1.2188705690        1.4157793642
 O         -3.5189530376       -2.2482747853        2.1194271247
 O         -1.6466550319        0.6308105334       -1.1168150957
 C         -1.3627530917       -1.8924334384        0.2486996521
 C         -0.0364220074       -1.2293757992        0.5316857788
 C          0.1440432014       -0.5987058484        1.7604212616
 C          1.3374672514        0.0248992757        2.0663800320
 C          2.3792366380        0.0366327743        1.1545534706
 C          2.2161297592       -0.6001783788       -0.0669704909
 C          1.0160992943       -1.2349539842       -0.3684823799
 H          0.9061284136       -1.7234943500       -1.3240097118
 N          3.2586073606       -0.5821864493       -1.0043034104
 S          4.8383377115       -0.8337122068       -0.5122946410
 O          5.5298422309       -1.2902493211       -1.6981240973
 O          4.9044099813       -1.7003446300        0.6414403045
 C          5.4249301217        0.7937170251       -0.0903246824
 C          6.0229146628        1.0134252305        1.1350061555
 C          6.4844798421        2.2850711239        1.4376532216
 C          6.3419860723        3.3087554446        0.5136638663
 C          5.7415291953        3.0710653482       -0.7138188633
 C          5.2789955469        1.8019804007       -1.0227297779
 H          4.8090782602        1.5778194413       -1.9658071617
 H          5.6318228360        3.8698272703       -1.4296302542
 H          6.7009433923        4.2977438551        0.7512723264
 H          6.9518298448        2.4717603821        2.3912245312
 H          6.1075654311        0.1888210080        1.8250166889
 H          3.0524794325       -1.0599681983       -1.8688304702
 H          3.3106788391        0.5268457013        1.3853357936
 H          1.4589955879        0.5120751013        3.0221031312
 H         -0.6713787883       -0.6028139963        2.4715349211
 H         -1.5085157122       -2.6891763164        0.9926919855
 C         -1.4673517045       -2.4955898890       -1.1364309933
 C         -0.9099195980       -3.8594822997       -1.4096616344
 C         -2.3932294002       -3.6530845814       -1.3524919717
 H         -2.9569800753       -3.6986722128       -2.2722383052
 H         -2.9309577058       -4.0249223670       -0.4923129786
 H         -0.4576650727       -4.0511943361       -2.3713637690
 H         -0.4381814108       -4.3804614162       -0.5899918623
 H         -1.4097509179       -1.7503221531       -1.9216903929
