  62
        -98.92975070
 C         -2.4356554299       -0.7981699402        0.4535141194
 C         -2.4169545100        0.6152897998        0.5490783088
 C         -3.5011206999        1.3470287895       -0.1263009617
 C         -4.4221815698        0.6502771991       -0.8141087715
 C         -5.6296940398        1.1830629588       -1.5350315318
 C         -6.8661954299        1.1596769092       -0.6204472819
 C         -7.0482655100        2.4027135696        0.2495752875
 H         -7.3410263700        3.2433614193       -0.3829157529
 H         -7.8768509001        2.2024882598        0.9327517975
 C         -5.8223624301        2.8116817600        1.0701250674
 H         -5.3620858901        1.9253324202        1.5104720579
 H         -6.1651166202        3.4410370603        1.8936683971
 C         -4.7797907200        3.5881453596        0.2519139172
 H         -5.2194478699        3.8812973092       -0.7011543330
 H         -4.5261610501        4.5136211099        0.7731283568
 C         -3.4591859000        2.8452507895        0.0041924576
 H         -2.9775293999        3.2586757592       -0.8887115425
 H         -2.7746609201        3.0305514299        0.8381381176
 H         -6.7961139999        0.2724268595        0.0139815985
 H         -7.7578677898        1.0478824089       -1.2405771120
 H         -5.4409773598        2.1817293986       -1.9175497423
 H         -5.8079227397        0.5118559684       -2.3778017615
 O         -4.3924516098       -0.7064172509       -0.9020844708
 C         -3.4094391298       -1.4688747806       -0.2870309404
 O         -3.5318207798       -2.6914149907       -0.4806768598
 H          1.2007814100       -0.6375632596        1.5326852497
 C          1.0952604501       -1.1441729201        0.5828444999
 C         -0.1358470299       -1.6756735603        0.2309533100
 C         -0.2687281897       -2.2902292408       -1.0107307097
 C          0.8149232104       -2.3811755312       -1.8647906096
 C          2.0454490803       -1.8579317610       -1.5062088497
 C          2.1834425502       -1.2262919404       -0.2780060200
 N          3.4302582201       -0.6902133202        0.0989142599
 S          4.2453041602        0.2323434193       -1.0619227204
 O          3.3455742702        1.1996657390       -1.6500845310
 O          4.8939347003       -0.6670297611       -1.9827859099
 C          5.4664373501        1.0440366798       -0.0498599607
 C          5.1922771100        2.2990632400        0.4598422587
 C          6.1353558599        2.9142354104        1.2681353985
 C          7.3278136399        2.2661318306        1.5536045489
 C          7.5880830200        1.0064969403        1.0346088995
 C          6.6501422401        0.3859255699        0.2249851597
 H          6.8114230701       -0.5875941103       -0.2074076598
 H          8.5173493600        0.5075378205        1.2573486399
 H          8.0596760798        2.7479137509        2.1825117088
 H          5.9363766698        3.8944569406        1.6706710381
 H          4.2557793900        2.7696892599        0.2049300384
 H          3.3645437600       -0.1749006298        0.9671558897
 H          2.8920648604       -1.9128054013       -2.1711587996
 H          0.7006669105       -2.8616942116       -2.8252211094
 H         -1.2309931997       -2.6869288710       -1.2989520796
 C         -1.3138681700       -1.5374374899        1.1614136798
 H         -1.0091648801       -0.8626105295        1.9772002596
 C         -1.7474070500       -2.8491507296        1.7987851504
 C         -1.2642108899       -4.1937649598        1.3538750411
 C         -0.7760237701       -3.6170974892        2.6464019708
 H         -1.1223145101       -4.0473296688        3.5737430410
 H          0.2424592599       -3.2594157391        2.6760026708
 H         -0.5740575198       -4.2443715201        0.5268305512
 H         -1.9713161099       -5.0087015898        1.3789840714
 H         -2.7719068800       -2.8060761295        2.1533760003
 O         -1.5303101801        1.2421543601        1.1918397986
