  62
        -98.93715646
 C         -1.9696450408       -0.3193984745        0.8856196973
 C         -2.8658502712       -1.0770189550        0.0955128112
 C         -4.2605561333       -0.5974229191        0.0373779665
 C         -4.6124622598        0.5202635841        0.6977989054
 C         -5.9502729008        1.2154979073        0.8408194997
 C         -7.1046075572        0.8958274520       -0.1060652714
 C         -6.8739404582        1.3030521314       -1.5606918482
 H         -7.7220233836        0.9491224702       -2.1511191327
 H         -6.8605666544        2.3944226588       -1.6190417859
 C         -5.5814094318        0.7917600585       -2.1924189961
 H         -5.5551992039        1.1420986800       -3.2278888487
 H         -4.7232112297        1.2354404149       -1.6831080438
 C         -5.4176436724       -0.7269224991       -2.2110074238
 H         -4.5475703083       -0.9545381070       -2.8323678483
 H         -6.2915611955       -1.1851303803       -2.6779414467
 C         -5.1902768982       -1.3863713280       -0.8392058082
 H         -6.1310499669       -1.5731349019       -0.3272415189
 H         -4.7090444282       -2.3540644688       -1.0064684936
 H         -7.3638839167       -0.1569278654       -0.0437035353
 H         -7.9691828404        1.4564798097        0.2599899540
 H         -6.2807481810        1.0179526357        1.8667381236
 H         -5.7321343604        2.2870130240        0.7896428369
 O         -3.7117656770        1.2209171557        1.4481441486
 C         -2.3922562525        0.8284181954        1.5604960655
 O         -1.7013456744        1.5719392330        2.2872805534
 H          1.5201741836        1.1154450493        1.0862008856
 C          1.3407724506        0.7153605407        0.0994272346
 C          0.3302585127       -0.2134163499       -0.1032472102
 C          0.1163398567       -0.7001894509       -1.3893749006
 C          0.8941530609       -0.2584205583       -2.4433144624
 C          1.9122391586        0.6561133814       -2.2346359344
 C          2.1369546008        1.1451592619       -0.9541503132
 N          3.1700065245        2.0702805311       -0.7039910201
 S          4.3403648702        1.6617035784        0.4215284870
 O          3.7501747977        1.5546036798        1.7304568177
 O          5.3780630668        2.6550234549        0.2595910858
 C          4.9351524835        0.0701246275       -0.1235977341
 C          6.0534913221        0.0184859865       -0.9328782169
 C          6.4761689440       -1.2092901704       -1.4160743406
 C          5.7686442730       -2.3576379330       -1.0940445692
 C          4.6458496288       -2.2885880443       -0.2835979538
 C          4.2220397606       -1.0645862141        0.2094009375
 H          3.3545866453       -0.9769615755        0.8428722566
 H          4.0934134743       -3.1801024197       -0.0340008635
 H          6.0939172974       -3.3128040488       -1.4750048937
 H          7.3512212639       -1.2663983224       -2.0432457717
 H          6.5737526418        0.9362647464       -1.1548434403
 H          3.6159030898        2.4159137410       -1.5425229500
 H          2.5242596938        0.9949707430       -3.0570543516
 H          0.7126148018       -0.6374280107       -3.4374989309
 H         -0.6741712583       -1.4158290004       -1.5537787515
 C         -0.5028415985       -0.6771014578        1.0679498043
 H         -0.1729674871       -0.1127957923        1.9513585497
 C         -0.2743170790       -2.1527623648        1.3343987126
 C          0.9377457337       -2.5689023640        2.1098444194
 C         -0.4229389216       -2.6739593403        2.7301963509
 H         -0.8550136333       -3.6532221098        2.8707632467
 H         -0.6871636189       -1.9657398291        3.5027084714
 H          1.4442155287       -3.4792362889        1.8283911357
 H          1.5944313855       -1.7908328998        2.4721522551
 H         -0.6054341904       -2.7932323215        0.5281063904
 O         -2.5469656736       -2.1157381589       -0.5401549236
