  62
        -98.93785590
 C         -2.0750555852       -0.8039242658       -0.0297086603
 C         -2.5136260673        0.5326059743       -0.1685466987
 C         -3.8420161092        0.8431828099        0.3919096553
 C         -4.5378019772       -0.1295166759        1.0059593687
 C         -5.9187662664       -0.0365033856        1.5935935463
 C         -6.9758917684       -0.4777931668        0.5672037134
 C         -7.4754583664        0.6303105208       -0.3589533148
 H         -8.0991175764        1.3210971544        0.2123798643
 H         -8.1122715424        0.1615202679       -1.1127188912
 C         -6.3821181827        1.4327043757       -1.0694439485
 H         -6.8307655121        1.9074921748       -1.9442797000
 H         -5.6054921490        0.7566923806       -1.4317592498
 C         -5.7564296950        2.5190840718       -0.1818760430
 H         -6.3738968583        2.6521396234        0.7063453823
 H         -5.7709437564        3.4727405972       -0.7137325396
 C         -4.2994176952        2.2676527834        0.2353407576
 H         -4.0975553420        2.8035404291        1.1689610575
 H         -3.6266390879        2.6920259801       -0.5167503679
 H         -7.8363506517       -0.8842179918        1.1025535543
 H         -6.5476168726       -1.2893218431       -0.0267241001
 H         -5.9447487579       -0.7278475962        2.4384994053
 H         -6.1170457148        0.9675866074        1.9564196854
 O         -4.0687555231       -1.4017796947        1.1306515083
 C         -2.8393038608       -1.7725406178        0.6200352508
 O         -2.5389012147       -2.9686607899        0.8082936904
 H          1.2827411828        0.2736759952       -1.7566276818
 C          1.3133636212        0.2931674988       -0.6786920701
 C          0.3671934255       -0.4034908235        0.0553616061
 C          0.4424628769       -0.3619368855        1.4454158813
 C          1.4207296051        0.3780686938        2.0804982546
 C          2.3515536781        1.0899739097        1.3439314313
 C          2.2944870719        1.0438750900       -0.0417892104
 N          3.2481482522        1.7487626118       -0.7942341508
 S          4.8531611111        1.6251479526       -0.3396187633
 O          5.1195720777        2.5124428163        0.7647563455
 O          5.6085411441        1.8750551620       -1.5469746273
 C          5.0499025398       -0.0696370898        0.1837827641
 C          4.8367247571       -1.0661069563       -0.7483459362
 C          4.9435881614       -2.3888928827       -0.3518038445
 C          5.2579024231       -2.6917661167        0.9643948657
 C          5.4736900867       -1.6801813635        1.8868923294
 C          5.3674727186       -0.3549359258        1.4957667826
 H          5.5259901583        0.4614622709        2.1813389015
 H          5.7202503925       -1.9187978962        2.9089522926
 H          5.3357046403       -3.7228112037        1.2715285975
 H          4.7785770145       -3.1780963599       -1.0676687399
 H          4.6007739016       -0.7973153796       -1.7653557055
 H          3.1357886465        1.6597193587       -1.7931256188
 H          3.1111642816        1.6873738849        1.8212630315
 H          1.4586096661        0.4058185042        3.1589487524
 H         -0.2868516897       -0.9152549861        2.0216832223
 C         -0.7257244839       -1.2240190042       -0.5849099710
 H         -0.5869652945       -2.2707648644       -0.2783156001
 C         -0.7391740681       -1.1576944958       -2.0976849799
 C          0.1696846031       -2.0406425386       -2.8978360878
 C         -1.3037498625       -2.3126877046       -2.8665441391
 H         -1.8870597040       -2.1069652954       -3.7516347910
 H         -1.6583490140       -3.1604919513       -2.2984726893
 H          0.8179287191       -2.7115437695       -2.3550473197
 H          0.5970217852       -1.6524920196       -3.8103530961
 H         -0.9489858136       -0.1614908782       -2.4703966183
 O         -1.8358927859        1.4266683379       -0.7405703613
