  62
        -98.94273722
 C          1.3525331414        1.6113386799        0.2424669104
 C          1.6672362909        0.5877199297        1.1653626605
 C          2.7942789604       -0.2938771110        0.8206972803
 C          3.4446412703       -0.1027818315       -0.3400264998
 C          4.6541146198       -0.8226498422       -0.8854747399
 C          4.7574038989       -2.3355810323       -0.6684188898
 C          3.4296912984       -3.0982601215       -0.7837856595
 H          2.6503825987       -2.4505929910       -1.1915631295
 H          3.5548211078       -3.9297652616       -1.4802604595
 C          2.9476648483       -3.6687804511        0.5511561506
 H          2.2305217377       -4.4680415507        0.3484701008
 H          3.7958786081       -4.1086830216        1.0812004305
 C          2.2487164590       -2.6582105306        1.4569620106
 H          1.3180911391       -2.3425861501        0.9760974007
 H          1.9779910489       -3.1646045104        2.3869899307
 C          3.0709239298       -1.4020891711        1.7958863904
 H          2.7402298002       -1.0327992708        2.7706575404
 H          4.1319143697       -1.6323538317        1.8566981502
 H          5.4577960885       -2.7102128828       -1.4172914399
 H          5.2020912189       -2.5372148725        0.3050193301
 H          4.6488624997       -0.6099546723       -1.9576947499
 H          5.5449738001       -0.3422945427       -0.4684103101
 O          3.0890631007        0.8804284887       -1.2164726798
 C          2.0261883413        1.7352978994       -0.9708679397
 O          1.7960251816        2.5437855494       -1.8908405897
 O          1.0328962010        0.4196322002        2.2427616306
 C          0.1700067020        2.5161842506        0.5303896706
 C         -0.9691997583        2.2206652812       -0.4173818392
 C         -1.8694893678        3.1857763717       -0.8528744492
 C         -2.9094225381        2.8389446823       -1.6984716990
 C         -3.0876949190        1.5312725824       -2.1134865488
 C         -2.1939488095        0.5580238519       -1.6808358489
 C         -1.1513673192        0.9124499413       -0.8410658591
 H         -0.4505841796        0.1529166309       -0.5349894592
 N         -2.3167765904       -0.7780956881       -2.0851289788
 S         -1.8507701310       -2.0283090983       -1.0790285788
 O         -0.4171833410       -2.0624537992       -0.9391551990
 O         -2.4538413818       -3.2000189080       -1.6784147886
 C         -2.6513382705       -1.6860625077        0.4778443213
 C         -4.0169723807       -1.8953323468        0.5340287916
 C         -4.6962273403       -1.6086292963        1.7056585217
 C         -4.0023646898       -1.1127769667        2.7997573015
 C         -2.6335588897       -0.9113976675        2.7292586213
 C         -1.9469445601       -1.1992894580        1.5591482112
 H         -0.8816916000       -1.0429089287        1.4929766910
 H         -2.0832948093       -0.5263703878        3.5730241412
 H         -4.5295198795       -0.8849309563        3.7127085416
 H         -5.7605728804       -1.7700040457        1.7629787118
 H         -4.5157587310       -2.2961869766       -0.3334479383
 H         -3.1498958806       -0.9987144976       -2.6091815986
 H         -3.8991242193        1.2660785128       -2.7735231487
 H         -3.5967476277        3.5994747527       -2.0364998389
 H         -1.7517986271        4.2094682517       -0.5370661993
 H         -0.1648917880        2.2404591509        1.5428905106
 C          0.5816373729        3.9735702804        0.5352347004
 C         -0.0867838764        4.9483919708        1.4570477004
 C          1.3214186434        4.5115998400        1.7224979302
 H          2.1241633838        5.2136530095        1.5546167700
 H          1.5012878731        3.8325667400        2.5433158802
 H         -0.2507099058        5.9569828609        1.1085492104
 H         -0.8616779965        4.5727985114        2.1081211306
 H          0.8899464630        4.3209530601       -0.4441095097
