  62
        -98.93758867
 C         -2.2184915281       -0.8442407461       -0.0781246217
 C         -3.2555843396       -0.7430843615        0.8827197909
 C         -4.1764570116        0.3897292452        0.7277805418
 C         -3.9725893359        1.2798521243       -0.2597167909
 C         -4.7769476916        2.5239238031       -0.5296328129
 C         -6.2414047146        2.3066041370       -0.9578006119
 C         -7.2512517804        2.3535598131        0.1956171609
 H         -6.8254283697        2.9397400489        1.0108766847
 H         -8.1428554462        2.8865295353       -0.1408623649
 C         -7.7179070332        0.9963782823        0.7307715277
 H         -8.2205889142        1.1688178377        1.6848530360
 H         -8.4547948959        0.5761033847        0.0425152370
 C         -6.6260310095       -0.0551437715        0.9294584571
 H         -6.3270536483       -0.4617421479       -0.0396090575
 H         -7.0525866505       -0.8864445355        1.4941475194
 C         -5.3615186087        0.4563918838        1.6467842223
 H         -5.5086697529        1.4721116933        2.0106159940
 H         -5.1312142901       -0.1854455440        2.4993560273
 H         -6.4871053520        3.1064798550       -1.6581261551
 H         -6.3251452464        1.3655840641       -1.5008863216
 H         -4.7491110404        3.1586847314        0.3589816497
 H         -4.2451379173        3.0457353718       -1.3279717183
 O         -2.9424225482        1.1665338864       -1.1417710777
 C         -2.0528981488        0.1033690804       -1.0879735174
 O         -1.1862911538        0.1259430265       -1.9840903868
 O         -3.4030494315       -1.5619592689        1.8282806837
 C         -1.2503811457       -2.0104757749        0.0386064357
 C          0.0995735229       -1.4712589489        0.4409488828
 C          0.3493459098       -1.1946032276        1.7824991936
 C          1.5541884371       -0.6443839960        2.1765229543
 C          2.5319593775       -0.3488260037        1.2419083730
 C          2.2837691528       -0.6008645268       -0.1000015048
 C          1.0813016705       -1.1758511407       -0.4913452971
 H          0.8977721113       -1.3550293782       -1.5387427318
 N          3.2622127655       -0.2952826075       -1.0605295874
 S          4.0616652178        1.1759897796       -0.9600747480
 O          3.2531748475        2.1913248502       -0.3254716735
 O          4.5081319589        1.4563646803       -2.3074868636
 C          5.4831207929        0.8041264388        0.0486838738
 C          6.2831615016       -0.2588530230       -0.3227944414
 C          7.3973152702       -0.5585239649        0.4444557083
 C          7.6935922349        0.2071855474        1.5623345588
 C          6.8831523216        1.2735503263        1.9199899529
 C          5.7662705919        1.5778680408        1.1570043718
 H          5.1045222910        2.3941541154        1.4001769488
 H          7.1150434039        1.8684077513        2.7888211209
 H          8.5611657083       -0.0283807228        2.1582392945
 H          8.0296498900       -1.3872179520        0.1693861693
 H          6.0198796450       -0.8266862701       -1.1993742969
 H          2.9625263994       -0.4747872370       -2.0082448109
 H          3.4690941693        0.0915159730        1.5405257886
 H          1.7356615806       -0.4402419163        3.2208295786
 H         -0.4217646720       -1.4054904283        2.5102727242
 H         -1.6337487710       -2.6205013517        0.8675138311
 C         -1.2232026811       -2.8572951535       -1.2164945663
 C         -0.6017242328       -4.2200929001       -1.1658824705
 C         -2.0878491833       -4.0783198727       -1.2941215289
 H         -2.5508141701       -4.3211346637       -2.2389272312
 H         -2.7005571043       -4.3115995748       -0.4357794441
 H         -0.0420780789       -4.5643269159       -2.0220604392
 H         -0.2036912520       -4.5485222265       -0.2178686632
 H         -1.1063748946       -2.2782987779       -2.1245918165
