  62
        -98.93936689
 C          1.8084559307        1.5531978118        0.2097175702
 C          1.7774649234        0.5859041062       -0.8210707871
 C          2.8472470126       -0.4334708514       -0.8039271397
 C          3.7431845389       -0.4387686752        0.2005048963
 C          4.9645615026       -1.2978064924        0.4567777826
 C          5.2556654826       -2.5250686910       -0.4023746310
 C          4.3029301186       -3.6977681936       -0.1719721943
 H          4.5196307013       -4.4703220767       -0.9126597795
 H          4.5049077717       -4.1185076009        0.8161731136
 C          2.8182946537       -3.3497148961       -0.2308508720
 H          2.2506063077       -4.2581259176       -0.0122876735
 H          2.5884520189       -2.6238037392        0.5519299853
 C          2.3333098539       -2.8100312737       -1.5745300611
 H          1.2409662410       -2.7702294884       -1.5471026681
 H          2.6159730425       -3.5029624854       -2.3696229107
 C          2.8432360161       -1.4081915860       -1.9485762069
 H          3.8306755468       -1.4597400975       -2.4024410061
 H          2.1634015469       -0.9936613214       -2.6990109168
 H          5.2821979451       -2.2510764851       -1.4529829201
 H          6.2622311044       -2.8601733331       -0.1381911929
 H          5.8174657252       -0.6139705609        0.3842102447
 H          4.9060107175       -1.6008231761        1.5071795442
 O          3.6813611932        0.4691830151        1.2187773058
 C          2.7475307153        1.4855683849        1.2417868326
 O          2.8516567698        2.2546723897        2.2170047504
 O          0.9203496808        0.5690091673       -1.7440908915
 C          0.8383669168        2.7250961637        0.2577328497
 C         -0.5514256628        2.2296800482        0.5721221283
 C         -0.9666306126        2.1202319312        1.8959385538
 C         -2.2193765638        1.6216348463        2.2049842292
 C         -3.0734627676        1.1944054651        1.2029108781
 C         -2.6554218403        1.2763599461       -0.1186224307
 C         -1.4152800900        1.8161728308       -0.4295331768
 H         -1.1031474129        1.8645683104       -1.4602951647
 N         -3.4781370539        0.7701866654       -1.1407880449
 S         -4.1522248626       -0.7391276837       -0.8765093609
 O         -4.2259858946       -1.3654334560       -2.1786245017
 O         -5.4141578682       -0.5823313777       -0.1942514798
 C         -3.0227726676       -1.6251258388        0.1897122598
 C         -1.6700198019       -1.6247442407       -0.0892633000
 C         -0.8137933477       -2.2949714064        0.7693084318
 C         -1.3165937131       -2.9663726955        1.8726661822
 C         -2.6783360542       -2.9704654929        2.1296868021
 C         -3.5390271811       -2.2883071859        1.2852081636
 H         -4.6023165170       -2.2471152441        1.4578412462
 H         -3.0695761903       -3.4937186540        2.9872111744
 H         -0.6404175684       -3.4844464252        2.5342773817
 H          0.2463385558       -2.2781337002        0.5739097697
 H         -1.2829689380       -1.0969999043       -0.9473460618
 H         -3.0482954761        0.8128265575       -2.0540622119
 H         -4.0485652121        0.7903129123        1.4239263937
 H         -2.5317945072        1.5550674828        3.2358244361
 H         -0.2891857847        2.4227032738        2.6820552867
 H          1.1719760271        3.3474577614        1.0982375797
 C          0.9048226010        3.5519662564       -1.0110620418
 C          0.3091681875        4.9265187029       -1.0188874976
 C          1.7973906518        4.7539450481       -1.0550184368
 H          2.3209524905        4.9735159322       -1.9735483768
 H          2.3619433439        4.9908251357       -0.1649059094
 H         -0.1912863026        5.2682327234       -1.9119918507
 H         -0.1379413053        5.2799679922       -0.1020690928
 H          0.8309368738        2.9643528998       -1.9172935353
