  62
        -98.93358739
 C          2.4510812097        0.0266385707        0.5630821403
 C          1.3891931098       -0.7510756996        1.0905095799
 C          1.3182623302       -2.1611681395        0.6784219897
 C          2.2400480505       -2.6386801092       -0.1754766201
 C          2.4409375310       -4.0488078991       -0.6742435603
 C          1.1991222412       -4.8794292794       -1.0127187107
 C          0.0605913112       -4.0907222495       -1.6752551309
 H          0.4090971511       -3.0980559594       -1.9682194706
 H         -0.2485346784       -4.6068718895       -2.5862102710
 C         -1.1681682790       -3.9430951899       -0.7762163511
 H         -2.0312479989       -3.7013744000       -1.4015644213
 H         -1.3689565789       -4.9000567500       -0.2889560213
 C         -1.0639471496       -2.8462112200        0.2814138990
 H         -1.9745056397       -2.8773852503        0.8854599488
 H         -1.0420474197       -1.8722733900       -0.2172964509
 C          0.1544376902       -2.9430058899        1.2171125993
 H         -0.1088882601       -2.4715980201        2.1676472293
 H          0.4198300104       -3.9798984398        1.4088221492
 H          1.5289444816       -5.6756200192       -1.6825292207
 H          0.8231729411       -5.3624987796       -0.1122887308
 H          3.0642995212       -3.9470975989       -1.5662302201
 H          3.0352781409       -4.5846820591        0.0723602098
 O          3.2141096305       -1.8436127189       -0.6996156698
 C          3.3195118901       -0.4953945289       -0.3952320396
 O          4.2172891501        0.0877207913       -1.0320342593
 H         -0.1136321709        1.9718140801        1.1945351099
 C          0.2438867593        2.2731805303        0.2193256900
 C          1.5999903494        2.1784094106       -0.0614582097
 C          2.0453554996        2.5536989309       -1.3243482995
 C          1.1442399798        2.9738706908       -2.2870546197
 C         -0.2148848403        3.0015078604       -2.0222462700
 C         -0.6617357906        2.6477593702       -0.7585124802
 N         -2.0570754606        2.5860545498       -0.5103555105
 S         -2.7333393401        1.1456837898       -1.1092897909
 O         -1.6771382998        0.2547514400       -1.5309235507
 O         -3.6884882899        1.5030150197       -2.1335932211
 C         -3.6026204403        0.4759041494        0.2993752288
 C         -4.9842098003        0.4864655191        0.3093658085
 C         -5.6516797205       -0.0220601112        1.4122172782
 C         -4.9296941506       -0.5292808312        2.4819545683
 C         -3.5432656206       -0.5294894009        2.4576893487
 C         -2.8670834305       -0.0206045306        1.3593826689
 H         -1.7874694005       -0.0192161203        1.3211510892
 H         -2.9765840408       -0.9217240809        3.2872198588
 H         -5.4482428308       -0.9268430614        3.3401178482
 H         -6.7294695605       -0.0215433415        1.4334895379
 H         -5.4998597802        0.8893152590       -0.5469199016
 H         -2.2558061209        2.6418242397        0.4805217894
 H         -0.9341783902        3.2652815304       -2.7818728002
 H          1.5019860799        3.2510578810       -3.2676334296
 H          3.0937060697        2.4660522812       -1.5639718793
 C          2.4867793193        1.4995719207        0.9529921805
 H          1.9870086790        1.5589260805        1.9292491603
 C          3.8666176891        2.1003263710        1.0825671909
 C          4.0082665386        3.4241073309        1.7715359811
 C          4.5054350587        2.1767963310        2.4360668411
 H          5.5708293588        2.0192484812        2.5093959213
 H          3.9488515086        1.7902645007        3.2773074509
 H          4.7313927886        4.1278089612        1.3893133914
 H          3.1111184184        3.8826476307        2.1594016309
 H          4.5167644394        1.8952573712        0.2434439910
 O          0.5392205994       -0.2880970599        1.8985047997
