  62
        -98.94117594
 C         -1.6614875036       -0.2751409451        0.2546965103
 C         -2.8021498560       -1.0000806958       -0.1684462941
 C         -3.9105179052       -0.1955749072       -0.7077390811
 C         -3.7772860128        1.1383297679       -0.8112400127
 C         -4.8457132355        2.0752058989       -1.2935550095
 C         -5.7038148937        2.5860302912       -0.1274741544
 C         -6.2073091641        1.4804181193        0.8005086493
 H         -5.3543452098        1.0270619247        1.3106894931
 H         -6.8245086767        1.9547835186        1.5666377912
 C         -7.0185318607        0.3825839695        0.0983410201
 H         -7.3636729994        0.7401059545       -0.8725030968
 H         -7.9054020087        0.1652194676        0.6974369816
 C         -6.2705999086       -0.9391940652       -0.0854992801
 H         -5.8448496677       -1.2552048150        0.8702391167
 H         -6.9949389185       -1.7002026975       -0.3881188865
 C         -5.1503322139       -0.9313175135       -1.1331706061
 H         -4.8422284482       -1.9679734576       -1.2974452294
 H         -5.5307498692       -0.5332608607       -2.0759604815
 H         -6.5539040903        3.1337043832       -0.5384201462
 H         -5.1047404878        3.2821091251        0.4641200185
 H         -4.3637609810        2.9258260963       -1.7782910035
 H         -5.4714841103        1.5617325112       -2.0208944338
 O         -2.6515061086        1.7967312570       -0.4360886585
 C         -1.5807938856        1.1146209559        0.1134495481
 O         -0.6236423946        1.8456526613        0.4372043944
 H          2.0708643796       -0.1464306940        0.2963230431
 C          1.7627072592       -0.9759073957       -0.3214210553
 C          0.4851709680       -1.4973636653       -0.1792699252
 C          0.0938742333       -2.5500343367       -0.9996743487
 C          0.9715010851       -3.0679085973       -1.9340679395
 C          2.2554017784       -2.5652468622       -2.0529722078
 C          2.6546718479       -1.5108494897       -1.2401281093
 N          3.9426178174       -0.9710415563       -1.3476149358
 S          4.7462436099       -0.3806537067       -0.0056969244
 O          6.1443841634       -0.4306061789       -0.3768842121
 O          4.3819527508       -1.0964907064        1.1942809180
 C          4.2397170883        1.3216697065        0.1002825236
 C          3.7139827105        1.8128770795        1.2779726290
 C          3.3420384439        3.1461506698        1.3424125234
 C          3.5042593966        3.9609835446        0.2332649425
 C          4.0384184125        3.4536845439       -0.9416123011
 C          4.4113618352        2.1216011953       -1.0118979265
 H          4.8332688680        1.6921782995       -1.9052810360
 H          4.1617575748        4.0920356038       -1.8017415829
 H          3.2102540555        4.9973978783        0.2858799645
 H          2.9221023239        3.5410391423        2.2535813058
 H          3.6006503027        1.1445757449        2.1175669523
 H          4.5606136432       -1.4540266585       -1.9826762004
 H          2.9442242969       -2.9828238646       -2.7716907507
 H          0.6572852232       -3.8824579446       -2.5692679456
 H         -0.9038666993       -2.9490760542       -0.9024102267
 C         -0.4355376990       -0.9274779588        0.8733194039
 H          0.1076122960       -0.1155273951        1.3760503507
 C         -0.7678906622       -1.9869107393        1.9074184007
 C          0.3117526997       -2.4349384735        2.8446373186
 C         -0.8297503371       -1.6081898043        3.3547715707
 H         -1.5706026880       -2.0829138569        3.9806834701
 H         -0.6374203658       -0.5764690088        3.6119172972
 H          1.2827749245       -1.9701710459        2.7504923542
 H          0.3536738107       -3.4778198933        3.1197266002
 H         -1.4694686092       -2.7307030557        1.5542996201
 O         -2.9172693385       -2.2532130099       -0.1092319512
