  62
        -98.94151893
 C          1.5213861626        0.7223180640        0.9417809708
 C          2.7666537346        1.1220472694        0.3990961591
 C          3.7995021560        0.0758086835        0.3288167916
 C          3.5126857483       -1.1720804704        0.7397600224
 C          4.4499834100       -2.3412172515        0.6566427067
 C          4.2853200214       -3.0939485412       -0.6712249886
 C          4.3015346379       -2.1880771405       -1.9025863917
 H          3.4202203648       -1.5426058546       -1.8828387113
 H          4.2086393054       -2.8311088482       -2.7805226908
 C          5.5607625350       -1.3204635363       -2.0363537870
 H          5.9073024545       -1.3625214090       -3.0711656659
 H          6.3580375807       -1.7249583192       -1.4116073982
 C          5.3514285102        0.1562201434       -1.6964315302
 H          4.4935272960        0.5429466435       -2.2523520371
 H          6.2334887567        0.7101541029       -2.0289284026
 C          5.1447647304        0.4743689354       -0.2103727590
 H          5.2049108784        1.5603140339       -0.0932366383
 H          5.9449546827        0.0207888110        0.3780141370
 H          3.3316445653       -3.6261688536       -0.6515254301
 H          5.0854873986       -3.8321992071       -0.7502898866
 H          5.4738145593       -1.9872089874        0.7606085416
 H          4.2251800807       -3.0214020830        1.4798263766
 O          2.3003031992       -1.5236467092        1.2388009079
 C          1.2799645649       -0.5947522640        1.3463625311
 O          0.2201549220       -1.0526709857        1.8167004968
 H         -1.8483201969        0.3637347217        0.2788700197
 C         -1.4842658935        1.0205423368       -0.4962329209
 C         -0.3512791183        1.7868394489       -0.2602538752
 C          0.1301514835        2.6047205587       -1.2766428040
 C         -0.5230545046        2.6568832228       -2.4946270469
 C         -1.6682361914        1.9124716213       -2.7173423427
 C         -2.1507550018        1.0832771131       -1.7110184587
 N         -3.2903319158        0.2942723540       -1.9143958684
 S         -4.3502425766       -0.0205103256       -0.6600897614
 O         -5.5790754720       -0.4035240592       -1.3230938386
 O         -4.4458845799        1.0983615512        0.2486383967
 C         -3.6693421963       -1.4433899918        0.1618804777
 C         -3.3653062729       -2.5536097436       -0.6000833302
 C         -2.8491486736       -3.6741866108        0.0293765994
 C         -2.6488736707       -3.6660997578        1.4014042132
 C         -2.9633804753       -2.5452148969        2.1525273445
 C         -3.4804364396       -1.4217226241        1.5287126471
 H         -3.7295111960       -0.5255513476        2.0755858262
 H         -2.7986890932       -2.5375988696        3.2178306141
 H         -2.2403464860       -4.5368606566        1.8895793342
 H         -2.6002855659       -4.5487829386       -0.5502529901
 H         -3.5350693681       -2.5220668542       -1.6636436840
 H         -3.7669801306        0.4421356759       -2.7916287943
 H         -2.1825358613        1.9655750549       -3.6650197378
 H         -0.1410301606        3.2925954541       -3.2792910938
 H          1.0302438940        3.1758751809       -1.1136750590
 C          0.3394857179        1.6706177239        1.0772290811
 H         -0.3603293765        1.1755623649        1.7643280668
 C          0.7033863796        3.0197624597        1.6616692300
 C         -0.3981104921        3.8987083428        2.1705839243
 C          0.5451820866        3.2442738175        3.1339066678
 H          1.2726173224        3.8594656622        3.6420118942
 H          0.1761675841        2.4222498694        3.7302524432
 H         -1.4078966711        3.5194961901        2.1083866468
 H         -0.3202907240        4.9642202084        2.0176972734
 H          1.5458048270        3.4942828395        1.1772762262
 O          3.0285333905        2.2844255629       -0.0076741899
