  62
        -98.93989917
 C          1.5455260959        1.0975999863       -0.0127736701
 C          2.6259911468        0.7974936836        0.8538490542
 C          3.3389645330       -0.4658108697        0.6054610214
 C          2.9197570903       -1.2743169795       -0.3826065618
 C          3.4532057738       -2.6289438452       -0.7765587780
 C          4.9776892743       -2.8021308234       -0.8260759181
 C          5.7619189543       -1.5484306163       -1.2401058606
 H          5.0805826487       -0.7917122433       -1.6329150264
 H          6.4531148622       -1.8116331291       -2.0430555003
 C          6.5815115071       -0.9512277044       -0.0935117644
 H          7.3715335376       -0.3253576546       -0.5156727923
 H          7.0662843268       -1.7645944190        0.4509173404
 C          5.7980506740       -0.0861045989        0.8931433954
 H          5.5010528188        0.8490778737        0.4105604263
 H          6.4684587875        0.1774374687        1.7147410871
 C          4.5313269382       -0.7316585054        1.4783336965
 H          4.3191840996       -0.2477981622        2.4354963826
 H          4.6756852803       -1.7951825414        1.6517287588
 H          5.1805643318       -3.6076648391       -1.5338695620
 H          5.3382879022       -3.1404276113        0.1442997917
 H          3.0323845350       -2.8245203654       -1.7658450677
 H          3.0329170521       -3.3725710595       -0.0933738182
 O          1.8632852076       -0.9552999789       -1.1813446844
 C          1.1618868905        0.2321030168       -1.0355039645
 O          0.2464071185        0.3794260746       -1.8676454040
 O          2.9750030690        1.5498095777        1.8010869279
 C          0.7627751386        2.3773116935        0.2356709392
 C         -0.6117239553        1.9696499723        0.7023557739
 C         -0.8073048617        1.6187817605        2.0355562153
 C         -2.0274892466        1.1334493037        2.4675901217
 C         -3.0703195089        0.9589287855        1.5737593501
 C         -2.8782056872        1.2936342342        0.2403380131
 C         -1.6670124387        1.8225620745       -0.1838017040
 H         -1.5358736078        2.0722375979       -1.2242817330
 N         -3.9075197459        1.0562339012       -0.6892671088
 S         -4.6427247996       -0.4458304693       -0.6113941751
 O         -5.0431129606       -0.7511431974       -1.9677345705
 O         -5.7151149191       -0.3988822598        0.3533424797
 C         -3.3987190307       -1.5999638389       -0.0491888165
 C         -3.7001625415       -2.4411957915        1.0034178383
 C         -2.7447163436       -3.3447806548        1.4388833316
 C         -1.5049698251       -3.3892652398        0.8200788482
 C         -1.2182391478       -2.5392510096       -0.2363703245
 C         -2.1715719188       -1.6370340910       -0.6808692319
 H         -1.9448048592       -0.9638076851       -1.4927673306
 H         -0.2526945007       -2.5578560898       -0.7177685199
 H         -0.7571662470       -4.0874758000        1.1619793370
 H         -2.9668283094       -4.0068727984        2.2602310967
 H         -4.6727239483       -2.3654440531        1.4622396016
 H         -3.6395938402        1.2684360541       -1.6398755283
 H         -4.0228266742        0.5613888619        1.8855042087
 H         -2.1662306394        0.8737807834        3.5058506859
 H          0.0179846284        1.7170684303        2.7266276218
 H          1.2775280929        2.8793826132        1.0652384755
 C          0.7613118636        3.2963727508       -0.9672139439
 C          0.3154198622        4.7175707959       -0.8010003084
 C          1.7619616462        4.4088684124       -1.0405915079
 H          2.1899345521        4.6536649554       -2.0012889526
 H          2.4514715302        4.5167510622       -0.2162154077
 H         -0.2513890432        5.1781643097       -1.5956871628
 H          0.0208201941        5.0329090355        0.1884938284
 H          0.5173503713        2.7938558353       -1.8953564760
