  62
        -98.94764022
 C          0.7778654899        1.2687688497        0.0454973372
 C          1.4959116233        0.6399986434        1.0894202227
 C          2.4014876187       -0.4422073726        0.6827036789
 C          2.4557776744       -0.8018824829       -0.6130043946
 C          3.4146662105       -1.8048268948       -1.1844154418
 C          4.7167846214       -1.1255790075       -1.6348588294
 C          5.3288648019       -0.1937711780       -0.5888259430
 H          4.6595869176        0.6550616475       -0.4305245370
 H          6.2553811431        0.2029825766       -1.0096187137
 C          5.6264989139       -0.8613910930        0.7610581417
 H          6.6213666272       -0.5558282155        1.0917926349
 H          5.6434524830       -1.9454243942        0.6433031391
 C          4.6517043857       -0.4890565875        1.8796830597
 H          4.5635152798        0.5985400640        1.9432311415
 H          5.0696664886       -0.8385141254        2.8276492121
 C          3.2418407621       -1.0800872591        1.7528369032
 H          2.7179030911       -0.8974677885        2.6958873501
 H          3.3125324967       -2.1590025903        1.6018809966
 H          4.5077250704       -0.5386364953       -2.5320433160
 H          5.4376471011       -1.9020759369       -1.8970355323
 H          2.9469052520       -2.2724330369       -2.0511382610
 H          3.6316333590       -2.5663891527       -0.4385649716
 O          1.6792161389       -0.2371631274       -1.5716366793
 C          0.8411277026        0.8271221864       -1.2761448849
 O          0.2189958405        1.2796907887       -2.2550692176
 O          1.3983633108        0.9795743489        2.3008150816
 C         -0.0878438015        2.4713538889        0.3669995254
 C         -1.5100889189        2.2714329585       -0.0929318646
 C         -2.2691182361        3.2875780153       -0.6598856360
 C         -3.5785207409        3.0531663083       -1.0415470574
 C         -4.1579030965        1.8116135256       -0.8616016147
 C         -3.4076750024        0.7878663757       -0.2916596309
 C         -2.0976722751        1.0262013290        0.0900540732
 H         -1.5212854956        0.2327566355        0.5431571171
 N         -3.9575170385       -0.4876548599       -0.1336059093
 S         -3.3347309658       -1.6304565623        0.8978899864
 O         -4.3546176460       -2.6578301705        0.9348005980
 O         -2.9671418024       -1.0700118779        2.1775527785
 C         -1.9076195552       -2.2819677931        0.0589446408
 C         -2.0103458805       -2.5811089641       -1.2847733714
 C         -0.9307879106       -3.1678228721       -1.9241724962
 C          0.2218450757       -3.4557673996       -1.2103131245
 C          0.3122922422       -3.1422185424        0.1363244462
 C         -0.7607026146       -2.5466702505        0.7791734156
 H         -0.7249784385       -2.2764285651        1.8233941937
 H          1.2097364150       -3.3603252539        0.6918360978
 H          1.0548051675       -3.9294027767       -1.7050166837
 H         -0.9924216239       -3.4025593201       -2.9746384557
 H         -2.9250569620       -2.3530346047       -1.8062783170
 H         -4.9453721898       -0.5817667027       -0.3097981074
 H         -5.1781380045        1.6286977520       -1.1616534267
 H         -4.1565388291        3.8499587030       -1.4844535879
 H         -1.8355633403        4.2631860466       -0.8059127315
 H         -0.0952364064        2.5436962331        1.4658642083
 C          0.5534200171        3.7238780055       -0.1984371961
 C          0.4179367410        5.0383362128        0.5086872711
 C          1.7310252929        4.3167732377        0.5136428063
 H          2.5440214756        4.7154996506       -0.0745701460
 H          2.0482479001        3.8362271318        1.4279011152
 H          0.3317999888        5.9369143933       -0.0836325274
 H         -0.1512987065        5.0567746164        1.4259028387
 H          0.5735235291        3.7233061923       -1.2828792643
