  62
        -98.93711916
 C          1.8678654181        1.4411756127        0.3105812641
 C          2.5554388412        0.8074100731       -0.7519519321
 C          3.7349384625        0.0165107651       -0.3697583375
 C          4.0941030741       -0.0658543172        0.9238690841
 C          5.2957304695       -0.7819839111        1.4816702043
 C          5.3054362421       -2.3156717345        1.3320596743
 C          6.0423073828       -2.8250627184        0.0871789135
 H          6.7701275478       -2.0739213725       -0.2219790307
 H          6.6092650741       -3.7185749336        0.3563501230
 C          5.1575448025       -3.2008147915       -1.1054747659
 H          5.8022057765       -3.3012078850       -1.9813082497
 H          4.7027929858       -4.1766217862       -0.9194100358
 C          4.0269692924       -2.2249059367       -1.4331669935
 H          3.6094955495       -2.4995436050       -2.4040081234
 H          3.2172990169       -2.3429686326       -0.7084510684
 C          4.4430378511       -0.7411267474       -1.4546445138
 H          5.5226503780       -0.6423741843       -1.3518967209
 H          4.1422410314       -0.2852349801       -2.4000363417
 H          4.2820498498       -2.6901958585        1.3489340415
 H          5.8097681275       -2.7158139201        2.2131229684
 H          6.1952859932       -0.3680503312        1.0206669749
 H          5.3180418278       -0.5280648060        2.5434838903
 O          3.3951206930        0.5507155875        1.9168138270
 C          2.2625627117        1.2987824336        1.6399370944
 O          1.7003420810        1.7746132870        2.6481105639
 H         -0.1678411505       -0.1271095795        0.8071399696
 C         -0.7122655710        0.1884965555       -0.0749501498
 C         -0.4239934188        1.4262295160       -0.6377924016
 C         -1.1429320364        1.8269495694       -1.7557224758
 C         -2.0975931139        0.9920571149       -2.3120563216
 C         -2.3632008591       -0.2488677237       -1.7644622809
 C         -1.6646857182       -0.6502774150       -0.6320431835
 N         -1.9384499404       -1.9010690980       -0.0539093777
 S         -3.5388127299       -2.3612016344        0.1089771349
 O         -3.5599629228       -3.2589078457        1.2427802700
 O         -4.0145803194       -2.9115069712       -1.1357727891
 C         -4.4280776820       -0.8596618350        0.4812047042
 C         -4.0583234017       -0.1442367057        1.6029794231
 C         -4.7190105214        1.0386672607        1.8912967204
 C         -5.7341180401        1.4832656141        1.0577455411
 C         -6.0977757870        0.7505329785       -0.0611411918
 C         -5.4382155882       -0.4319966210       -0.3560242257
 H         -5.6854715653       -1.0309999676       -1.2172905745
 H         -6.8888422540        1.0976348457       -0.7059568812
 H         -6.2440269436        2.4062740930        1.2841069640
 H         -4.4362494573        1.6093799667        2.7614289275
 H         -3.2677876588       -0.5174522189        2.2347329030
 H         -1.4130076353       -2.0908887254        0.7861657812
 H         -3.0883318314       -0.9177110690       -2.1988365346
 H         -2.6395147580        1.3111553907       -3.1889849956
 H         -0.9489064573        2.7889834700       -2.1999396502
 C          0.6339640834        2.2774183690        0.0228751423
 H          0.2489550087        2.5960962117        1.0027437617
 C          1.0100002022        3.5077515272       -0.7759835787
 C          0.2109234197        4.7681730951       -0.6423591052
 C          1.5866641953        4.6872317889       -0.0542036880
 H          2.3854484989        5.2402319472       -0.5251824184
 H          1.6836349977        4.6121029673        1.0194090522
 H          0.0662683729        5.3825353194       -1.5181430005
 H         -0.6294860518        4.7583516071        0.0348948456
 H          1.4269970390        3.2621699104       -1.7456649091
 O          2.2100940459        0.8996830847       -1.9579238460
