  62
        -98.93798381
 C         -2.6238533092       -1.0070533876        0.5295326821
 C         -2.8721758549        0.1938833732        1.2453384715
 C         -4.1457273096        0.8699925769        0.9724578467
 C         -4.9989880857        0.3242637907        0.0871041670
 C         -6.3141576762        0.9213027743       -0.3203214531
 C         -6.1569684293        1.8292735934       -1.5478403021
 C         -5.0179816704        2.8414172217       -1.4245090634
 H         -4.0658788762        2.3058234760       -1.4012258424
 H         -5.0218327843        3.4477903991       -2.3329263278
 C         -5.1138486158        3.7582168735       -0.1969149094
 H         -6.1304859051        3.7439187672        0.1976311029
 H         -4.9016205215        4.7830755059       -0.5086291038
 C         -4.1298171187        3.4213003229        0.9250738165
 H         -3.1202927553        3.3395302418        0.5140991472
 H         -4.1278275482        4.2521827796        1.6356420782
 C         -4.4326705128        2.1432214277        1.7174564854
 H         -3.7775355017        2.1319136873        2.5933791487
 H         -5.4682553017        2.1616181592        2.0632003002
 H         -5.9635265984        1.2014037947       -2.4206955053
 H         -7.0989318875        2.3562807387       -1.7103246549
 H         -6.7232871537        1.4878090521        0.5139960675
 H         -6.9988708981        0.1079079734       -0.5663458873
 O         -4.7325944596       -0.8268458954       -0.5765195799
 C         -3.5411850685       -1.5151612052       -0.3909788634
 O         -3.4502922908       -2.5396017614       -1.0949832180
 O         -2.0635692234        0.6724049165        2.0860337915
 C         -1.3075702492       -1.7075172730        0.8215889140
 C         -0.2639184509       -1.3704886684       -0.2176669345
 C         -0.3929665174       -1.7839023010       -1.5393836500
 C          0.5820419971       -1.4685419682       -2.4682425078
 C          1.7010063893       -0.7406674389       -2.1031730602
 C          1.8408020793       -0.3245775684       -0.7862305055
 C          0.8612560650       -0.6450998201        0.1463936783
 H          0.9655465154       -0.3087045539        1.1692854012
 N          2.9644632023        0.4311404703       -0.4089574701
 S          4.4616725698       -0.0266762739       -1.0449070148
 O          4.5962427452        0.5558963551       -2.3566626767
 O          4.6123496146       -1.4624671518       -0.9732712779
 C          5.5771060121        0.7739059133        0.0904688996
 C          6.1171716079        0.0447049355        1.1328571643
 C          6.9689633844        0.6788652786        2.0235309695
 C          7.2618294817        2.0243545165        1.8590596449
 C          6.7115012424        2.7429664698        0.8079507873
 C          5.8600295986        2.1149788997       -0.0870295340
 H          5.4170140247        2.6303793036       -0.9231650978
 H          6.9440346167        3.7881717661        0.6827655650
 H          7.9257758207        2.5152717456        2.5529456900
 H          7.4007630424        0.1222840230        2.8397095214
 H          5.8691174967       -1.0013694223        1.2161608495
 H          3.0137771294        0.5728856113        0.5906255651
 H          2.4690986926       -0.4954284373       -2.8191810087
 H          0.4706461516       -1.7942407976       -3.4918893524
 H         -1.2687078520       -2.3417527951       -1.8333380936
 H         -0.9704948432       -1.2847567490        1.7779006462
 C         -1.4400838671       -3.2086344741        0.9867067165
 C         -0.3777002922       -3.9490753256        1.7402214485
 C         -1.7392220648       -3.7730722546        2.3415417516
 H         -2.3909440463       -4.6310839103        2.4083973876
 H         -1.8493980969       -3.0767590179        3.1601690643
 H         -0.0894642324       -4.9294390178        1.3934445445
 H          0.4371734611       -3.3725180041        2.1515323394
 H         -1.8887303596       -3.7001995494        0.1339530172
