  62
        -98.94396704
 C          1.9948340680        1.1720097092       -0.1360367144
 C          2.4541801881        0.1243616842       -0.9697135490
 C          3.8883859379       -0.1858947985       -0.8728558085
 C          4.6664031847        0.5350672622       -0.0451669871
 C          6.1281013529        0.2901069874        0.1898997882
 C          6.3443286253       -0.6657555076        1.3714176355
 C          5.4959343524       -1.9356521682        1.3007179072
 H          4.4415643301       -1.6679837976        1.4024918291
 H          5.7558573771       -2.5492205633        2.1661072562
 C          5.6870417566       -2.7558186280        0.0172068426
 H          5.7775970063       -3.8103205411        0.2862773384
 H          6.6173552905       -2.4659905324       -0.4727197502
 C          4.5335460107       -2.6498600532       -0.9824238996
 H          3.5868963078       -2.8486087365       -0.4729455580
 H          4.6669347273       -3.4284321031       -1.7384111635
 C          4.4103129370       -1.3110779014       -1.7211433836
 H          3.6811099072       -1.4428318459       -2.5259923694
 H          5.3710351433       -1.0466971771       -2.1677174603
 H          6.0935814618       -0.1376776086        2.2942927055
 H          7.4016106704       -0.9340265197        1.4101025373
 H          6.5726134713       -0.1242275163       -0.7127532873
 H          6.6059020818        1.2452738274        0.4143085422
 O          4.1921705098        1.5498998452        0.7214303764
 C          2.8475654186        1.8797272808        0.7121803124
 O          2.5382268272        2.8059233026        1.4881099716
 H         -1.3939818517        0.1311025494       -1.5178948659
 C         -1.2367296606       -0.2348700724       -0.5157143636
 C         -0.2989560478        0.3705967330        0.3043312247
 C         -0.1159791309       -0.1344791643        1.5892169530
 C         -0.8496302072       -1.2157013574        2.0383676960
 C         -1.7841095837       -1.8197630477        1.2142260526
 C         -1.9690786926       -1.3271921481       -0.0689718921
 N         -2.9449199959       -1.9221413613       -0.8995666718
 S         -4.5191661303       -1.7574899339       -0.3443293079
 O         -4.7325126502       -2.6647533432        0.7539246606
 O         -5.3662919414       -1.9425187408       -1.5008444693
 C         -4.5897012755       -0.0699836537        0.2296543974
 C         -4.4227079437        0.1992989233        1.5728041051
 C         -4.3726985867        1.5200717586        1.9888525949
 C         -4.4842960691        2.5422011883        1.0592082552
 C         -4.6548584947        2.2551757524       -0.2865908980
 C         -4.7026823511        0.9367293170       -0.7085720621
 H         -4.8386542609        0.6734246030       -1.7453111845
 H         -4.7428245602        3.0532843795       -1.0062390705
 H         -4.4383671667        3.5695208779        1.3852903020
 H         -4.2399651363        1.7470897456        3.0344180271
 H         -4.3391579747       -0.6240008937        2.2628690599
 H         -2.8875806456       -1.6102915952       -1.8590253814
 H         -2.3759950273       -2.6571214482        1.5471395441
 H         -0.6947090903       -1.5928955755        3.0379472281
 H          0.6148011927        0.3375970301        2.2322143715
 C          0.5253332162        1.5572656682       -0.1293376140
 H          0.4226661853        2.3365159526        0.6386260639
 C          0.1123426008        2.1360436928       -1.4659892889
 C         -1.1255203137        2.9762729814       -1.5574712512
 C          0.2250533726        3.6135588784       -1.6834112457
 H          0.5409145005        3.9683885806       -2.6530436130
 H          0.5920384569        4.2100756122       -0.8610381277
 H         -1.6836421890        3.1389529977       -0.6478817896
 H         -1.7379513149        2.8985258582       -2.4430379094
 H          0.3578232802        1.4892919581       -2.3003737763
 O          1.7111333136       -0.5186121492       -1.7566099032
