  62
        -98.93804496
 C         -1.3911021015       -1.8767988373       -0.4687008280
 C         -1.4577658321       -0.6601106647       -1.1879991090
 C         -2.6502535622        0.1869841734       -0.9628549022
 C         -3.6302077112       -0.2617943036       -0.1593042556
 C         -4.9185386232        0.4136899874        0.2330878093
 C         -4.7180805904        1.5218526725        1.2750125384
 C         -3.5997548884        2.5079085217        0.9499993280
 H         -3.5350348060        3.2200792002        1.7775813162
 H         -2.6433870498        1.9822299207        0.9122022290
 C         -3.7937954491        3.3058434922       -0.3380047773
 H         -4.7583168448        3.8177276806       -0.3030944756
 H         -3.0113572518        4.0689198476       -0.3569304933
 C         -3.7015171638        2.5090379835       -1.6434714194
 H         -4.6380803261        2.0072516090       -1.8743596347
 H         -3.5274511744        3.2271550072       -2.4499904341
 C         -2.5514776841        1.5089777977       -1.6841431433
 H         -2.3354075657        1.2578165753       -2.7291416450
 H         -1.6426130250        1.9923884895       -1.3039267881
 H         -4.4837559050        1.0520634716        2.2337014382
 H         -5.6603849527        2.0625578456        1.3852362285
 H         -5.4246250638        0.8034399270       -0.6451257926
 H         -5.5539031159       -0.3614385099        0.6682484125
 O         -3.5558363877       -1.4780456671        0.4582851548
 C         -2.4370547110       -2.2790286737        0.3633575504
 O         -2.4957814935       -3.3270536952        1.0406147651
 H          0.4418367647       -0.2853036619        0.3502482586
 C          0.9885755160       -1.0328461017        0.8976640124
 C          0.7904802222       -2.3758604157        0.6145077463
 C          1.4853584241       -3.3223987182        1.3591194162
 C          2.3618977018       -2.9249732542        2.3536968408
 C          2.5533753535       -1.5841155557        2.6338826238
 C          1.8476789532       -0.6286257573        1.9085322600
 N          1.9691451070        0.7281164268        2.2155491361
 S          1.5782332249        1.9864929789        1.1932483204
 O          1.9834843802        3.1595726981        1.9394345923
 O          0.1897111986        1.9270024966        0.8165688927
 C          2.6597838475        1.8038860964       -0.2125330642
 C          2.2051527592        1.2997991179       -1.4130323856
 C          3.1052813434        1.1704255819       -2.4614043223
 C          4.4305504066        1.5364242815       -2.2939681853
 C          4.8709023733        2.0412967283       -1.0790410194
 C          3.9790232301        2.1771181535       -0.0294617693
 H          4.2739971193        2.5846320878        0.9238805081
 H          5.9016916595        2.3293310670       -0.9494765937
 H          5.1226147290        1.4299079318       -3.1144172334
 H          2.7554017175        0.7788173294       -3.4030022807
 H          1.1734340791        1.0053934486       -1.5304106498
 H          2.6814962022        0.9718469640        2.8851614570
 H          3.2252096655       -1.2767635522        3.4203845197
 H          2.8969023769       -3.6685728916        2.9246540228
 H          1.3181887949       -4.3729170217        1.1719806314
 C         -0.1755467656       -2.7885397933       -0.4707854535
 H         -0.5581563379       -3.7876040462       -0.2059424018
 C          0.4911320443       -2.9018008537       -1.8351888763
 C          1.8031769857       -2.2605669195       -2.1600865937
 C          1.7162553023       -3.7484837690       -2.0177022975
 H          1.7893366300       -4.3591547625       -2.9048493199
 H          2.1562673064       -4.1921534769       -1.1382320432
 H          1.9208022536       -1.8363786402       -3.1447448127
 H          2.2984978086       -1.6978770732       -1.3836560682
 H         -0.2409242642       -2.9304588519       -2.6354770618
 O         -0.5722106452       -0.2645209664       -1.9889669402
