  62
        -98.93196765
 C          1.8989502806        1.2707361706        0.7994189595
 C          2.9417932607        1.1709262909       -0.1530454105
 C          3.9352758509        0.1036089412        0.0816582895
 C          3.7966021411       -0.7195272889        1.1336812594
 C          4.6987414314       -1.8439832487        1.5777820894
 C          5.2663341417       -2.7708885285        0.4944164593
 C          4.3378051319       -3.0124736786       -0.7046251807
 H          4.2522981122       -4.0870906486       -0.8758795608
 H          3.3372195517       -2.6360086389       -0.4854105208
 C          4.8515370417       -2.3708402884       -1.9957239107
 H          4.3790582819       -2.8667675084       -2.8470093007
 H          5.9268656018       -2.5470545381       -2.0712859306
 C          4.5790443813       -0.8738587685       -2.1360676905
 H          3.5096377513       -0.7050479687       -2.2876611406
 H          5.0889135513       -0.5216730582       -3.0360696205
 C          5.0239325410       -0.0061393884       -0.9473271305
 H          5.9507536111       -0.3749580582       -0.5147091004
 H          5.1925005408        1.0086558017       -1.3180380304
 H          6.2147130516       -2.3739167882        0.1349685194
 H          5.4896937120       -3.7223711685        0.9801942993
 H          5.5266280713       -1.4103524085        2.1466251894
 H          4.0986028416       -2.4273672490        2.2802577093
 O          2.7580544011       -0.6048622793        2.0105540694
 C          1.7967307908        0.3771691404        1.8675154494
 O          0.9107085208        0.3590920501        2.7465270694
 O          3.0657426805        1.9268057810       -1.1489071604
 C          0.7985374703        2.3171337303        0.7280702195
 C         -0.3604825195        1.7839397900       -0.0737595306
 C         -0.1841836593        1.3108807302       -1.3708359406
 C         -1.2568300191        0.8086689299       -2.0846879407
 C         -2.5197569392        0.7547331395       -1.5198667607
 C         -2.7005944993        1.2028892394       -0.2181903607
 C         -1.6239941295        1.7182156196        0.4932640794
 H         -1.7680455497        2.0570127595        1.5101614094
 N         -3.9710868094        1.1296477090        0.3730876292
 S         -4.9087110290       -0.2269377013        0.0972987791
 O         -5.5832368289       -0.0981440514       -1.1705119410
 O         -5.7656134290       -0.3319427516        1.2569500490
 C         -3.7723220086       -1.6021987310        0.0314882590
 C         -2.8998285586       -1.7907109608        1.0848558190
 C         -2.0069631283       -2.8487520906        1.0343575890
 C         -2.0049050380       -3.6994096105       -0.0606255411
 C         -2.8925340780       -3.5016141006       -1.1069016811
 C         -3.7840409583       -2.4418799209       -1.0639110911
 H         -4.4858877283       -2.2468712110       -1.8585935811
 H         -2.8893701578       -4.1660440005       -1.9558964212
 H         -1.3060830278       -4.5203028103       -0.0961570811
 H         -1.3125331883       -2.9966771404        1.8462962990
 H         -2.9179574788       -1.1179182409        1.9273837491
 H         -3.9939472795        1.4041863489        1.3440082892
 H         -3.3660522490        0.3757462193       -2.0694271308
 H         -1.1098603490        0.4532073100       -3.0931945707
 H          0.8014068407        1.3466749905       -1.8100402205
 H          0.4521066202        2.4371671501        1.7670055295
 C          1.2871233199        3.6804646004        0.2592919497
 C          0.8752920998        4.3165525304       -1.0308004003
 C          0.3419906096        4.8459756002        0.2641578397
 H          0.6954592893        5.8005093702        0.6236866298
 H         -0.6932760003        4.6427676499        0.4956441097
 H          1.6189941197        4.8905530107       -1.5620228902
 H          0.1989736600        3.7795208403       -1.6766187704
 H          2.3018932199        3.8800770407        0.5869118497
