  62
        -98.94047129
 C         -1.4765742300       -1.4813712410       -0.3521397799
 C         -2.7649376999       -1.4565197312        0.2320758603
 C         -3.6103404301       -0.2921195813       -0.0853258696
 C         -3.1119820204        0.6774303188       -0.8724444597
 C         -3.7664119407        1.9771518886       -1.2533468796
 C         -3.3824617107        3.0898520787       -0.2624720196
 C         -4.2948609606        3.2130413085        0.9566310505
 H         -3.8499728606        3.9563052986        1.6223864705
 H         -5.2678455907        3.5966461384        0.6425376706
 C         -4.5088553402        1.9164501985        1.7412375605
 H         -4.8419767101        2.1827641384        2.7462614906
 H         -3.5593428601        1.3878367387        1.8451070704
 C         -5.5524081102        0.9897502283        1.1005801507
 H         -6.0944957904        1.5383409283        0.3306400107
 H         -6.2911590500        0.7012803582        1.8515031408
 C         -4.9915635900       -0.3117965816        0.5118171906
 H         -4.9419617898       -1.0722075116        1.2977324206
 H         -5.6895005201       -0.6909253117       -0.2426610193
 H         -3.3921123309        4.0470775387       -0.7877072296
 H         -2.3585005606        2.9028021789        0.0683645902
 H         -4.8442753406        1.8630598985       -1.3189451194
 H         -3.3819244208        2.2398528087       -2.2408983896
 O         -1.8621873105        0.6176054190       -1.4078269298
 C         -1.0179881303       -0.4544976309       -1.1784536300
 O          0.0786255896       -0.3743164107       -1.7613377501
 O         -3.1908103497       -2.3675178413        0.9924772703
 C         -0.5545439797       -2.6440755008       -0.0218071701
 C          0.6085148903       -2.0760619907        0.7507990798
 C          0.4401143804       -1.7609911907        2.0964878798
 C          1.4469020704       -1.1364547305        2.8084175097
 C          2.6367409503       -0.7942986303        2.1883987595
 C          2.8090045301       -1.0963300503        0.8447188495
 C          1.8098672701       -1.7533981205        0.1396196596
 H          1.9601020300       -1.9760986304       -0.9043815604
 N          4.0023604000       -0.7178492701        0.1929082793
 S          4.3559541397        0.9205138699        0.1811336193
 O          5.3756206595        1.0820028801       -0.8309936908
 O          4.7202324498        1.3273506000        1.5157080193
 C          2.8555494195        1.7439911597       -0.3173350105
 C          2.6112540393        1.9131955797       -1.6647312505
 C          1.4313057491        2.5182381795       -2.0617000603
 C          0.5151837592        2.9332774393       -1.1090852302
 C          0.7722285294        2.7497818894        0.2400831298
 C          1.9530416796        2.1491537396        0.6444724696
 H          2.1889203697        1.9948815796        1.6848333196
 H          0.0553893295        3.0679944192        0.9814632099
 H         -0.4081575209        3.3944799192       -1.4229245500
 H          1.2224707090        2.6528390495       -3.1106918203
 H          3.3493615393        1.5785139698       -2.3760346206
 H          4.0531162699       -1.0673923801       -0.7541978807
 H          3.4237988503       -0.2824332302        2.7182453694
 H          1.3033300405       -0.9046223906        3.8530293497
 H         -0.5001778295       -2.0004380909        2.5736606399
 H         -1.1317253796       -3.2987344109        0.6443705800
 C         -0.1592898698       -3.4270356508       -1.2553587701
 C          0.4631342604       -4.7812819307       -1.0969008802
 C         -0.9343877796       -4.6552418809       -1.6226584100
 H         -1.1130166598       -4.8576643909       -2.6681247500
 H         -1.7522079195       -4.9414451210       -0.9777875999
 H          1.2453651604       -5.0744761105       -1.7804311703
 H          0.5958942206       -5.1529551707       -0.0920893102
 H          0.1856087900       -2.8009798107       -2.0695111802
