  62
        -98.94469525
 C         -2.5690097589       -0.1794413208       -0.3415871223
 C         -2.1359193453       -0.7184703401        0.8945551081
 C         -1.6649024068       -2.1103498953        0.8553245976
 C         -1.6588788227       -2.7721735677       -0.3156012940
 C         -1.1878252565       -4.1851375887       -0.5047720674
 C          0.2957201106       -4.2409173970       -0.8907573280
 C          1.2068056374       -3.4193998852        0.0217766580
 H          2.2342980409       -3.5876751180       -0.3107538516
 H          1.0022928189       -2.3553196924       -0.1220556813
 C          1.0900957616       -3.7577228704        1.5145354388
 H          2.0957958632       -3.8081769440        1.9368699965
 H          0.6337131097       -4.7411588458        1.6387696454
 C          0.3162757336       -2.7238811559        2.3356289243
 H          0.6888441985       -1.7244143223        2.0985526027
 H          0.5143145244       -2.9113234360        3.3946830604
 C         -1.2064595027       -2.7241568833        2.1477095815
 H         -1.5934933063       -3.7407235398        2.2517485382
 H         -1.6392261068       -2.1067391452        2.9403606106
 H          0.4046760707       -3.8603647664       -1.9093668882
 H          0.6140036312       -5.2855272691       -0.8802434564
 H         -1.7779305987       -4.6364338352       -1.3048250672
 H         -1.3551037403       -4.7415567366        0.4155367755
 O         -2.0694418136       -2.2156472741       -1.4858357419
 C         -2.5084830953       -0.9035865600       -1.5301977168
 O         -2.8254241244       -0.5041473098       -2.6719529712
 O         -2.1617184973       -0.0772106951        1.9771856504
 C         -3.0386210814        1.2622968169       -0.4200260152
 C         -1.9155144011        2.1864149237       -0.0140557694
 C         -2.0954402545        3.3256639509        0.7588819060
 C         -1.0163895869        4.1282947681        1.0926242564
 C          0.2638654167        3.8053928222        0.6815062824
 C          0.4510687657        2.6727256636       -0.1003600291
 C         -0.6320770488        1.8918826249       -0.4591574805
 H         -0.4684626905        1.0187246179       -1.0783850768
 N          1.7686269755        2.2814022727       -0.4795716477
 S          2.0543768189        0.6271524338       -0.5060168928
 O          1.7429897569        0.0511159843       -1.8014563650
 O          1.4135677041        0.0484841315        0.6449430262
 C          3.8217334473        0.6190244447       -0.2695050409
 C          4.3062737684        0.9370325465        0.9848300980
 C          5.6763952080        0.9682502212        1.1869854046
 C          6.5359422089        0.6834603695        0.1359772198
 C          6.0354109841        0.3638378655       -1.1166371886
 C          4.6649331646        0.3320175271       -1.3246323110
 H          4.2299963574        0.0822682225       -2.2792355011
 H          6.7052434824        0.1398645319       -1.9312835519
 H          7.6023978519        0.7089526351        0.2951751610
 H          6.0686824670        1.2142832433        2.1605846039
 H          3.5981577923        1.1431973076        1.7706848705
 H          2.1041242129        2.7271885328       -1.3216343366
 H          1.1121014283        4.4102522028        0.9576885482
 H         -1.1756865755        5.0087123148        1.6963290079
 H         -3.0828573508        3.5822533551        1.1072143553
 H         -3.2614428803        1.4489240965       -1.4820390594
 C         -4.3050159708        1.4604052083        0.3867147144
 C         -5.3214883380        2.4758704137       -0.0391028388
 C         -5.6094363044        1.0143451792       -0.2001222658
 H         -6.3369348702        0.5538949298        0.4510389363
 H         -5.5845101485        0.5917924044       -1.1944729272
 H         -5.8577934395        3.0196752587        0.7237748881
 H         -5.1129991684        3.0497603845       -0.9294706041
 H         -4.1504287193        1.2973349535        1.4468452610
