  62
        -98.93914814
 C         -1.9494850707       -0.8522936781        0.6861513307
 C         -1.9885604885       -0.2038933759       -0.5731728823
 C         -2.2997073082        1.2331573874       -0.5455640444
 C         -2.4582503746        1.8549497077        0.6358367629
 C         -2.8136425455        3.3032441013        0.8053477853
 C         -4.3345997718        3.5016201702        0.8713418500
 C         -5.0983399009        2.7958872392       -0.2491428909
 H         -4.9898220493        1.7156832128       -0.1276233231
 H         -6.1569825616        3.0297159016       -0.1181706713
 C         -4.6573574873        3.1922743742       -1.6649615921
 H         -4.1006673993        4.1292932932       -1.6302879618
 H         -5.5473403501        3.3649083483       -2.2735620602
 C         -3.8216294804        2.1340268244       -2.3873880326
 H         -4.3340808212        1.1697877680       -2.3428909987
 H         -3.7491534203        2.4181886081       -3.4404326173
 C         -2.3911777122        1.9436750865       -1.8666997897
 H         -1.8555334646        1.3112395336       -2.5809365396
 H         -1.8828189482        2.9089930382       -1.8175935342
 H         -4.5438472758        4.5723548129        0.8393762418
 H         -4.6921245684        3.1133827001        1.8279171927
 H         -2.3664330170        3.6577286964        1.7357725447
 H         -2.3961080788        3.8711213961       -0.0239635554
 O         -2.3541234112        1.2130253320        1.8284339126
 C         -2.0879247329       -0.1447567958        1.8814308101
 O         -1.9974772731       -0.6020597627        3.0405889110
 H          0.6321763820       -0.9045313428        0.7237602219
 C          0.6987851599       -1.7584951262        0.0637995812
 C         -0.3823039556       -2.6268678683       -0.0368708509
 C         -0.2750405980       -3.7234470882       -0.8806852538
 C          0.8862174139       -3.9343406754       -1.6054363176
 C          1.9509508287       -3.0586666277       -1.5159044777
 C          1.8469852042       -1.9470773038       -0.6838431162
 N          2.8851302905       -1.0023882991       -0.6311573179
 S          2.9393087968        0.1829875137        0.5550157093
 O          2.9985740924       -0.4134618712        1.8732291620
 O          1.8766681049        1.1306003200        0.3257586563
 C          4.5075849276        0.9314798409        0.1565033156
 C          4.5623716299        1.8210823625       -0.8999822664
 C          5.7809409215        2.3890204545       -1.2356457217
 C          6.9186409473        2.0600675271       -0.5133721870
 C          6.8480614210        1.1678321658        0.5457301165
 C          5.6322601870        0.5949929173        0.8855366836
 H          5.5266246055       -0.0965769421        1.7058490674
 H          7.7331753026        0.9167820174        1.1076066521
 H          7.8654905006        2.5046686701       -0.7759649425
 H          5.8385089760        3.0850468841       -2.0568724081
 H          3.6496143222        2.0524760132       -1.4242947413
 H          3.7956589198       -1.3763285206       -0.8559845675
 H          2.8488275448       -3.2195268456       -2.0921248678
 H          0.9587870405       -4.7927408414       -2.2560350586
 H         -1.1025451104       -4.4056274177       -0.9850598207
 C         -1.5962941056       -2.3246243833        0.8099769390
 H         -1.2970848522       -2.4519451339        1.8650392542
 C         -2.7599771462       -3.2765626566        0.5718959527
 C         -4.1799448396       -2.8077420646        0.6784437350
 C         -3.6170872044       -3.1947783334       -0.6542480429
 H         -3.9574756694       -4.1162120417       -1.1037026264
 H         -3.3889924352       -2.4161791050       -1.3642754975
 H         -4.3458743299       -1.7590932498        0.8806463022
 H         -4.9006783942       -3.4614539195        1.1467289014
 H         -2.5579402356       -4.2700125228        0.9604807146
 O         -1.7785011255       -0.7835749814       -1.6701461730
