  62
        -98.94035536
 C         -2.2624453400       -1.0151892101       -0.3345756308
 C         -3.5952085999       -1.1216470304        0.1341594892
 C         -4.5353912800       -0.1055621300       -0.3550138999
 C         -4.0962347500        0.8391869906       -1.2064182592
 C         -4.9289706200        1.9701128411       -1.7357179883
 C         -4.8151213599        3.2084949004       -0.8356774673
 C         -5.0243864698        2.9129564492        0.6496315325
 H         -4.2054449998        2.2831716289        1.0054889119
 H         -4.9525428297        3.8633166388        1.1830120932
 C         -6.3640323498        2.2401668590        0.9805212221
 H         -6.7962461797        2.7332669183        1.8537050525
 H         -7.0609348999        2.3768797596        0.1530111223
 C         -6.2614358098        0.7510257087        1.3156636609
 H         -7.2161969797        0.4321842584        1.7419941207
 H         -5.4948718897        0.6000490581        2.0798455807
 C         -5.9541896099       -0.1797139404        0.1355695402
 H         -6.0994627999       -1.2086080207        0.4771174494
 H         -6.6543651900        0.0144914303       -0.6791088596
 H         -5.5470384400        3.9463865506       -1.1691528367
 H         -3.8178336900        3.6366761404       -0.9621218371
 H         -5.9668688101        1.6502047311       -1.8033279084
 H         -4.5693306501        2.2233790118       -2.7344030781
 O         -2.8135724901        0.9012733910       -1.6472675493
 C         -1.8589648200       -0.0081497994       -1.2115125801
 O         -0.7214540001        0.1864811709       -1.6811648600
 O         -3.9790179199       -2.0227590410        0.9272389685
 C         -1.2373450099       -2.0157517205        0.1734323183
 C         -0.2542527598       -1.2854903512        1.0549458788
 C         -0.7030380597       -0.8025981521        2.2827877592
 C          0.1415889604       -0.0953785828        3.1149105897
 C          1.4492209603        0.1523109075        2.7346535997
 C          1.9084264402       -0.3265027016        1.5137046593
 C          1.0598346401       -1.0487470309        0.6841526388
 H          1.4339776100       -1.3958264002       -0.2635307115
 N          3.2488478602       -0.1190136813        1.1326680093
 S          3.5885762900        0.3732943099       -0.4494632903
 O          2.8769808000        1.5942703302       -0.7559467693
 O          3.4016908899       -0.7403086294       -1.3428163712
 C          5.3328406801        0.7149382698       -0.2849687702
 C          6.2143495701       -0.3491438103       -0.2595886611
 C          7.5678292401       -0.0946342004       -0.1062743110
 C          8.0156674201        1.2122969795        0.0182871699
 C          7.1197609101        2.2701490895       -0.0112960892
 C          5.7643701201        2.0219177997       -0.1626948892
 H          5.0314895701        2.8119823097       -0.2001032285
 H          7.4703867901        3.2853825394        0.0820478316
 H          9.0697895501        1.4078000494        0.1361375700
 H          8.2676872401       -0.9143572404       -0.0855149517
 H          5.8207792500       -1.3460366702       -0.3693614219
 H          3.7263550103        0.4984117782        1.7777264798
 H          2.1101901204        0.7111703970        3.3802423401
 H         -0.2197300895        0.2726613865        4.0634432100
 H         -1.7294680097       -0.9875180124        2.5691899191
 H         -1.8053864599       -2.7139756810        0.8051939778
 C         -0.5974004700       -2.7943851196       -0.9543366224
 C          0.0747301100       -4.1005306599       -0.6579094835
 C         -1.2250926401       -4.0786334393       -1.4031277933
 H         -1.2214151302       -4.3118383284       -2.4573111235
 H         -2.1162621101       -4.4039866896       -0.8864247035
 H          0.9759150599       -4.3472493995       -1.1983169737
 H          0.0662702300       -4.4427621807        0.3659224163
 H         -0.1610806401       -2.1606853690       -1.7181044119
