  62
        -98.93419607
 C         -2.4372824995       -1.0711866507        0.0942337097
 C         -2.6935428895       -0.0094137909       -0.8032029106
 C         -4.1080746295        0.3721051189       -0.9731792907
 C         -5.0538113895       -0.3032219910       -0.2970846006
 C         -6.5355060995       -0.0459899010       -0.2901220108
 C         -6.9220913397        0.8740948392        0.8803028390
 C         -6.8318646997        2.3698816292        0.5805401986
 H         -7.6378999597        2.6478407089       -0.1017121315
 H         -7.0007073798        2.9003215594        1.5204922285
 C         -5.5026220597        2.8391678691       -0.0168312714
 H         -4.6729288897        2.3591846693        0.5054369887
 H         -5.4167177098        3.9130432391        0.1600951783
 C         -5.3919612496        2.5743710687       -1.5257364914
 H         -6.3745332696        2.3059264686       -1.9133666214
 H         -5.0998475997        3.4957198086       -2.0337620516
 C         -4.3674330995        1.5037923587       -1.9299499810
 H         -4.6550799095        1.0820483584       -2.8988948710
 H         -3.3881260196        1.9717051687       -2.0728481711
 H         -6.2756476997        0.6279317595        1.7266224291
 H         -7.9484403197        0.6500472592        1.1778923190
 H         -6.8593213095        0.3679190187       -1.2402709209
 H         -7.0179358995       -1.0147570010       -0.1448232406
 O         -4.7607822995       -1.3272032507        0.5524392196
 C         -3.4586060695       -1.7320128806        0.7749612598
 O         -3.3395401095       -2.6706705004        1.5888583001
 H          1.5390343505       -0.8338462806       -0.4611394601
 C          1.1340720904       -0.1886277004        0.3001641197
 C         -0.1432254496       -0.3936262404        0.7963446397
 C         -0.6180779997        0.4645663598        1.7851953594
 C          0.1604645302        1.5060404700        2.2506834292
 C          1.4387250002        1.7023940700        1.7579124792
 C          1.9249149204        0.8487277797        0.7758079195
 N          3.2113897304        1.0276036897        0.2415240395
 S          4.1046001605       -0.3461387304       -0.1671560701
 O          3.7342687206       -0.7706914107       -1.4935709500
 O          3.9916678205       -1.3388751601        0.8775234101
 C          5.7525334404        0.3362059297       -0.1945793702
 C          6.1600220205        1.0427276995       -1.3106363204
 C          7.4296180104        1.5979071596       -1.3249368404
 C          8.2659931804        1.4387448699       -0.2297984804
 C          7.8439541004        0.7255868601        0.8820994698
 C          6.5747056904        0.1689550801        0.9037259099
 H          6.2067721804       -0.4005188797        1.7420467000
 H          8.4977960703        0.6003984204        1.7300882199
 H          9.2542326803        1.8704949900       -0.2445161004
 H          7.7623841704        2.1505139194       -2.1887249406
 H          5.4792803905        1.1322660892       -2.1411649904
 H          3.7654214403        1.6921025599        0.7643707093
 H          2.0494871402        2.5128541401        2.1257522090
 H         -0.2266362598        2.1665217902        3.0122262690
 H         -1.6120832597        0.3037198499        2.1813861794
 C         -1.0129500895       -1.5358646505        0.3296545299
 H         -1.0629615795       -2.2751659103        1.1438519401
 C         -0.4820585094       -2.2212182008       -0.9126862499
 C          0.5495475707       -3.3017496007       -0.7997301996
 C         -0.8588183393       -3.6464045809       -1.1783741696
 H         -1.0618412892       -3.9454766212       -2.1956671395
 H         -1.4805078893       -4.1384535908       -0.4442963995
 H          1.3202497707       -3.3577054909       -1.5545250895
 H          0.8919957707       -3.5647682805        0.1902449005
 H         -0.4250297994       -1.5511471410       -1.7637068601
 O         -1.7866253195        0.5991497890       -1.4301785207
