  62
        -98.93949534
 C         -1.9144122410       -1.3694111372        0.2609805184
 C         -1.7240624151        0.0070292204        0.0021007422
 C         -2.8708003675        0.8884069127        0.2837405300
 C         -4.0086828688        0.3580379504        0.7638994922
 C         -5.2818425660        1.0641248681        1.1586580231
 C         -5.7856074065        2.1859549128        0.2408475711
 C         -5.5003875666        1.9782081086       -1.2537288016
 H         -5.1561634381        0.9578387616       -1.4314930317
 H         -6.4278884998        2.1105046725       -1.8139514199
 C         -4.4720894636        2.9671376456       -1.8080342101
 H         -4.5844320039        3.0189351071       -2.8937307800
 H         -4.6910341209        3.9602569695       -1.4096589719
 C         -3.0110854438        2.6235112935       -1.5204831446
 H         -2.3952442732        3.4573893978       -1.8661481736
 H         -2.7153876374        1.7461915357       -2.1025152129
 C         -2.6751796550        2.3400515788       -0.0473041904
 H         -3.2421839765        2.9863675953        0.6181162923
 H         -1.6094023573        2.5378794981        0.0952346088
 H         -5.3561279936        3.1359587928        0.5555321994
 H         -6.8628350666        2.2612657659        0.3985956595
 H         -6.0356719337        0.2754709645        1.2196812258
 H         -5.1503510154        1.4612065350        2.1694568640
 O         -4.1453209165       -0.9778102995        1.0027971015
 C         -3.1157941622       -1.8696267467        0.7597057365
 O         -3.3861109626       -3.0574366129        1.0293946006
 O         -0.6450103571        0.4859792236       -0.4322776792
 C         -0.7896817377       -2.3527809693       -0.0083670965
 C          0.4394244605       -1.9513713141        0.7698564919
 C          0.3285133518       -1.7765632414        2.1478781415
 C          1.4230971828       -1.4098486471        2.9055840454
 C          2.6520223906       -1.1989443619        2.3035460093
 C          2.7748924068       -1.3747962922        0.9315893660
 C          1.6757987028       -1.7608439878        0.1743994855
 H          1.8040003919       -1.8831793744       -0.8875312515
 N          4.0147912082       -1.1888259539        0.2898723673
 S          4.1391461112       -0.0669535509       -0.9486828407
 O          3.2561366294       -0.4244618429       -2.0269837604
 O          5.5509102698       -0.0288103712       -1.2650845266
 C          3.6610062462        1.4811024724       -0.2012879042
 C          4.6603219114        2.3313174375        0.2334771876
 C          4.3118577858        3.5082192850        0.8749141746
 C          2.9736764297        3.8092015691        1.0803080078
 C          1.9852014542        2.9424277425        0.6420640739
 C          2.3240176606        1.7639580551       -0.0060232397
 H          1.5618335619        1.0837814214       -0.3525187525
 H          0.9421538121        3.1674202396        0.7997739200
 H          2.6988365320        4.7232424347        1.5830065724
 H          5.0808170565        4.1835798230        1.2140710661
 H          5.6865587344        2.0567986155        0.0493207561
 H          4.7851139363       -1.0557813086        0.9307095218
 H          3.5082818382       -0.9050506195        2.8917224846
 H          1.3192813057       -1.2792961796        3.9721649580
 H         -0.6348948214       -1.9326764864        2.6149426349
 H         -1.1360550764       -3.3233077059        0.3763256502
 C         -0.5508930346       -2.4798377976       -1.4983271733
 C          0.0150329652       -3.7470336893       -2.0624144731
 C         -1.4232165159       -3.3979164135       -2.2981068790
 H         -1.7252893779       -3.0908879351       -3.2883273695
 H         -2.1802677814       -3.9530343398       -1.7629003338
 H          0.7044779806       -3.6776273170       -2.8905345702
 H          0.2356409881       -4.5467995688       -1.3715310321
 H         -0.2572215029       -1.5437496635       -1.9606495999
