  62
        -98.93668866
 C         -2.6029884854       -0.0412291293        0.5476314583
 C         -2.0547463844        0.4305217225       -0.6688258615
 C         -1.5773231409        1.8292227056       -0.6909239207
 C         -1.7281034627        2.5873620974        0.4096045030
 C         -1.3186962552        4.0198886835        0.6357330214
 C          0.1883059718        4.1772729475        0.8776205285
 C          1.0754433774        3.4409357199       -0.1220518700
 H          2.1145608098        3.5958426360        0.1831851019
 H          0.8865386745        2.3672777703       -0.0547911157
 C          0.9414528826        3.8968599475       -1.5736937820
 H          1.7234315075        3.3833873298       -2.1384309488
 H          1.1339699934        4.9707125789       -1.6320939940
 C         -0.3970071616        3.5972618332       -2.2556767369
 H         -0.2377099745        3.6860241507       -3.3341884518
 H         -1.1536770165        4.3330029102       -1.9940541682
 C         -0.9285977982        2.1901374214       -2.0042188407
 H         -1.6690641417        1.9460830601       -2.7753135906
 H         -0.1164447763        1.4653083729       -2.1405373599
 H          0.4279753453        5.2425947975        0.8657384608
 H          0.4164912926        3.7873053585        1.8729177671
 H         -1.6398987838        4.6399259542       -0.1959261190
 H         -1.8505815570        4.3560970430        1.5290275404
 O         -2.3022443873        2.1012461006        1.5502186141
 C         -2.6921164476        0.7828639787        1.6690107789
 O         -3.1085960225        0.4684969840        2.8041582064
 H         -0.3828554534       -1.1706123571        1.1522174266
 C         -0.5592667919       -2.0138998517        0.4998028212
 C         -1.8643411416       -2.3613641857        0.1723956254
 C         -2.0690264523       -3.4547638075       -0.6577923492
 C         -0.9885908941       -4.1551969610       -1.1674977542
 C          0.3080100055       -3.7665445532       -0.8871382955
 C          0.5228504298       -2.6777803829       -0.0494033235
 N          1.8266230508       -2.2342677576        0.2593061508
 S          2.0791949181       -0.5604703413        0.1758746944
 O          1.5483738750        0.0562414584        1.3662416061
 O          1.6073041051       -0.0471769215       -1.0888021982
 C          3.8611980172       -0.5074272921        0.2280170275
 C          4.5733718160       -0.2381561683       -0.9248309488
 C          5.9585953867       -0.2256055669       -0.8698949501
 C          6.6038492359       -0.4848461691        0.3296727807
 C          5.8750540436       -0.7529607088        1.4792412490
 C          4.4902551703       -0.7647501223        1.4313351543
 H          3.8816012184       -0.9580719057        2.2992345018
 H          6.3799139834       -0.9515676271        2.4108285730
 H          7.6815290699       -0.4753319760        0.3702048846
 H          6.5271022595       -0.0139744629       -1.7611019142
 H          4.0270471629       -0.0378687531       -1.8325549854
 H          2.5244300762       -2.7084840763       -0.3004820387
 H          1.1470352463       -4.2924472672       -1.3176595763
 H         -1.1606061749       -5.0010247832       -1.8160394554
 H         -3.0706782321       -3.7440056602       -0.9304922826
 C         -2.9697261204       -1.5038036092        0.7426056524
 H         -2.9740149030       -1.6462922647        1.8371272168
 C         -4.3572487885       -1.8881182197        0.2506344073
 C         -5.4240578281       -0.8531899314        0.0564660956
 C         -4.8320775495       -1.5502796883       -1.1294994884
 H         -5.4407082083       -2.2727060349       -1.6535796780
 H         -4.1528917255       -1.0029097337       -1.7635019293
 H         -5.1564875449        0.1792119802        0.2307382280
 H         -6.4336444758       -1.0984675034        0.3507381474
 H         -4.6856463779       -2.8380284304        0.6612504668
 O         -1.9557958138       -0.2754526547       -1.7066241368
