  62
        -98.93517664
 C         -1.9214261727       -0.6634659095        0.6073347626
 C         -3.2992113994       -0.7958465241        0.9487653420
 C         -4.1523447384        0.3844923783        0.7705527744
 C         -3.5862567678        1.5473708949        0.4046243336
 C         -4.3304976725        2.8191771983        0.1235515077
 C         -4.7243565081        2.9170309830       -1.3569997271
 C         -5.3990142682        1.6582178149       -1.9024698256
 H         -5.6590276537        1.8546173206       -2.9449615340
 H         -4.6779569137        0.8375462490       -1.9007052724
 C         -6.6566395971        1.2279673976       -1.1342928175
 H         -7.4379281305        0.9761843262       -1.8545811447
 H         -7.0267964777        2.0595212670       -0.5335373770
 C         -6.4642151908        0.0024271676       -0.2388335807
 H         -6.0081659142       -0.8050508768       -0.8174333684
 H         -7.4508183664       -0.3425404371        0.0818444931
 C         -5.6245501311        0.2261545388        1.0251027850
 H         -6.0133128596        1.0844083354        1.5770528177
 H         -5.7260071968       -0.6621553812        1.6554698825
 H         -5.3916855428        3.7719296695       -1.4805871011
 H         -3.8222410268        3.1036670563       -1.9444249746
 H         -5.2201007223        2.8579619639        0.7495470831
 H         -3.6829048932        3.6607087345        0.3751875070
 O         -2.2519358963        1.6760674333        0.2248827726
 C         -1.3793564842        0.5957604402        0.3418667230
 O         -0.1898887323        0.9388071587        0.2025260009
 H          0.3749348860       -0.8823363527       -1.3024607654
 C          0.9874124297       -1.2770160589       -0.5056370175
 C          0.3915441843       -1.8161206784        0.6251407011
 C          1.2131110653       -2.2853413700        1.6440457457
 C          2.5913919464       -2.2244696940        1.5315122112
 C          3.1799921031       -1.6655561156        0.4120766788
 C          2.3676234650       -1.1682520276       -0.5988649394
 N          2.9413635868       -0.5439767161       -1.7181189267
 S          4.3250040656        0.3680421118       -1.5204775273
 O          4.2773529552        1.3573131651       -2.5762802080
 O          5.4739560339       -0.5067624725       -1.5487001203
 C          4.2524762756        1.1732234571        0.0745349025
 C          3.0621232130        1.6802730595        0.5558097535
 C          3.0641320700        2.3268377780        1.7827074389
 C          4.2424760868        2.4654163572        2.4984874205
 C          5.4299350097        1.9542044760        1.9978853148
 C          5.4358200675        1.3012092803        0.7764825760
 H          6.3332011837        0.8778126781        0.3548230371
 H          6.3471173450        2.0591964973        2.5547360308
 H          4.2331396539        2.9705331697        3.4515433688
 H          2.1332070239        2.7109731825        2.1685668840
 H          2.1385303643        1.5560858946        0.0130514620
 H          2.2717788030       -0.0597124748       -2.2976419255
 H          4.2515062960       -1.6029859918        0.3083498624
 H          3.2134560277       -2.6050226672        2.3268864588
 H          0.7636504152       -2.7021325591        2.5339923761
 C         -1.0991863318       -1.9454036369        0.7400490303
 H         -1.3302075390       -2.3244424958        1.7503730103
 C         -1.6337750259       -3.0260676204       -0.2092519479
 C         -1.0065493201       -3.4454119189       -1.5015972468
 C         -0.9521604400       -4.3572535120       -0.3137254978
 H         -1.5575839904       -5.2509100388       -0.3107117272
 H          0.0024394979       -4.4680053236        0.1790242104
 H         -0.0828386749       -2.9891103751       -1.8187831580
 H         -1.6696225609       -3.6991000760       -2.3161325875
 H         -2.7162266222       -3.0582482822       -0.1796581666
 O         -3.7962819492       -1.8647058608        1.3939531389
