  62
        -98.94520161
 C          1.5522956905        1.0984728896        0.1938749591
 C          2.8807406607        1.2551931498        0.6628975086
 C          3.9444473504        0.7787342595       -0.2293679916
 C          3.6124418300        0.2357455791       -1.4147211413
 C          4.5874462197       -0.3613088013       -2.3867877814
 C          4.7738101498       -1.8629051312       -2.1272730209
 C          5.0508880203       -2.2074256806       -0.6636557009
 H          4.1652142105       -1.9718585104       -0.0683741607
 H          5.1952959203       -3.2885999106       -0.6065617805
 C          6.2715580905       -1.4955288104       -0.0635165616
 H          6.8567884207       -2.2231280201        0.5026957485
 H          6.9098626202       -1.1184060507       -0.8633148519
 C          5.9326145008       -0.3532661400        0.8959675781
 H          5.2200428010       -0.7054678398        1.6462019185
 H          6.8476842209       -0.0685310698        1.4219971077
 C          5.3627718305        0.9150873397        0.2483457278
 H          5.3487090808        1.6991273900        1.0109682475
 H          6.0148224702        1.2381904794       -0.5654287025
 H          5.5955820396       -2.2220896214       -2.7495219911
 H          3.8627885897       -2.3828609913       -2.4336307904
 H          4.1975047993       -0.2221617017       -3.3964466613
 H          5.5418819997        0.1543848088       -2.3012471019
 O          2.3301161398        0.1223206789       -1.8423444908
 C          1.2661368801        0.5300666591       -1.0480670806
 O          0.1503098099        0.3485475589       -1.5694910302
 H         -2.0195516994        0.3773802697        0.5291726705
 C         -1.4557722191       -0.1941436201        1.2439718506
 C         -0.2132301090        0.2531557701        1.6617357600
 C          0.4937339314       -0.5072933595        2.5909326300
 C         -0.0335334085       -1.6841654493        3.0850442006
 C         -1.2695821786       -2.1348958095        2.6524202312
 C         -1.9802312989       -1.3876837699        1.7224248612
 N         -3.2465304691       -1.8009838101        1.2719709018
 S         -3.5164096296       -1.8769137707       -0.3881670581
 O         -4.6621996196       -2.7556862608       -0.5152414274
 O         -2.3263620399       -2.2887547110       -1.0942192283
 C         -4.0123913198       -0.2285925909       -0.8381713586
 C         -3.2197258301        0.5331494488       -1.6738898291
 C         -3.6355256503        1.8168506387       -1.9942974895
 C         -4.8244879101        2.3105863688       -1.4796831692
 C         -5.6094622298        1.5287444191       -0.6451758487
 C         -5.2023530797        0.2450175093       -0.3206996883
 H         -5.7831590494       -0.3993133905        0.3179777421
 H         -6.5326720197        1.9169389893       -0.2462481685
 H         -5.1383944902        3.3118348687       -1.7302147495
 H         -3.0205422905        2.4248177684       -2.6391878799
 H         -2.2839222502        0.1291907687       -2.0298390293
 H         -3.5838119189       -2.6451985099        1.7136307322
 H         -1.6793757684       -3.0597175494        3.0303796917
 H          0.5231752318       -2.2618525690        3.8077810807
 H          1.4652960915       -0.1614046894        2.9160107796
 C          0.4183097408        1.5122851999        1.1188185893
 H          0.9053588211        2.0318706803        1.9560992289
 C         -0.5624358794        2.4559234797        0.4578759293
 C         -1.5531752692        3.1988539900        1.3022476693
 C         -0.4161625694        3.9330576297        0.6593220987
 H         -0.6276130797        4.5883562594       -0.1720260015
 H          0.3927579608        4.2745991100        1.2885481183
 H         -2.5492365493        3.3467272998        0.9134519796
 H         -1.5149449188        3.0400681804        2.3692630394
 H         -0.8853234798        2.1202043793       -0.5194004305
 O          3.1629440310        1.7670549403        1.7795922483
