  62
        -98.94570302
 C         -2.5594125272       -0.1416040714        0.0743109606
 C         -2.4306794203       -1.2069618693       -0.8463205890
 C         -1.8950373306       -2.4602423932       -0.3060498701
 C         -1.5622239228       -2.5356667124        0.9956292681
 C         -0.9867263321       -3.7378169647        1.6936988488
 C          0.5330143207       -3.8714836915        1.5233978006
 C          0.9897682248       -4.3621640277        0.1487172471
 H          2.0373114677       -4.6545489556        0.2441839225
 H          0.4243796122       -5.2529170664       -0.1286484440
 C          0.8764166877       -3.3092212057       -0.9622843932
 H          1.7901559974       -3.3093743468       -1.5624896128
 H          0.8020779330       -2.3138980876       -0.5170658361
 C         -0.2917023532       -3.5154369166       -1.9269693332
 H         -0.3025624874       -2.6731430412       -2.6242928067
 H         -0.1332491386       -4.4301252867       -2.5039178462
 C         -1.6688558036       -3.5974651827       -1.2566330208
 H         -2.4312603101       -3.5315452180       -2.0374177595
 H         -1.7781434166       -4.5508365929       -0.7396479787
 H          0.8865737550       -4.5790434462        2.2771663365
 H          0.9918877779       -2.9006519997        1.7277326141
 H         -1.2064546802       -3.6140164039        2.7562212357
 H         -1.4785791902       -4.6439911207        1.3383190845
 O         -1.7335390325       -1.4993146271        1.8575579028
 C         -2.1945202983       -0.2700059059        1.4149856528
 O         -2.2532580166        0.6061923273        2.2997497388
 H         -0.3681246515        0.7830220100       -0.5404947609
 C         -0.5813563572        1.8141501613       -0.2993382184
 C         -1.9018951798        2.2340510499       -0.2028417451
 C         -2.1487055094        3.5726581562        0.0731031323
 C         -1.0963975514        4.4532926384        0.2625393609
 C          0.2149379339        4.0207351041        0.2033171348
 C          0.4725192155        2.6798740523       -0.0671965488
 N          1.7899445819        2.1910773830       -0.0606009271
 S          2.1288994750        0.5758789284       -0.3562123066
 O          1.8331198925        0.2246423597       -1.7293200452
 O          1.5054203267       -0.2229245195        0.6683000799
 C          3.8940880686        0.5978078102       -0.1112928515
 C          4.3767539521        0.6191583072        1.1835367561
 C          5.7465427228        0.6628917157        1.3880985784
 C          6.6067648292        0.6849267097        0.2999798819
 C          6.1082479684        0.6602345506       -0.9936539608
 C          4.7387474022        0.6172504721       -1.2045487307
 H          4.3047226761        0.5879357162       -2.1910344086
 H          6.7792326624        0.6737769298       -1.8373580620
 H          7.6725215806        0.7184279886        0.4620128053
 H          6.1371967652        0.6791451691        2.3927643219
 H          3.6687931697        0.5918041629        1.9959170656
 H          2.4842838268        2.8271780094       -0.4225006400
 H          1.0325127643        4.7036072104        0.3728239236
 H         -1.3029985390        5.4920614662        0.4712376257
 H         -3.1648178022        3.9258125129        0.1422031450
 C         -2.9991414297        1.2199364895       -0.4282517701
 H         -3.1393780202        1.1008333290       -1.5143062522
 C         -4.3201868989        1.6274699046        0.1918612960
 C         -5.3091513096        2.4409112362       -0.5872223267
 C         -5.5803709245        0.9932019603       -0.3135190082
 H         -6.3490082864        0.7340229056        0.3987960316
 H         -5.4851542072        0.2902114665       -1.1283978205
 H         -5.8972060889        3.1779178719       -0.0613667252
 H         -5.0434728508        2.7216982475       -1.5953137139
 H         -4.2384004861        1.7996210859        1.2591746693
 O         -2.7478112200       -1.1128198827       -2.0650743645
