  62
        -98.93892185
 C         -1.8180066499       -0.9953864588       -0.1975319258
 C         -2.9674929103       -1.0861010581        0.6283732257
 C         -4.2023664472       -0.4321542566        0.1566786554
 C         -4.1809750989        0.2026657274       -1.0296338473
 C         -5.2890964654        0.9680519625       -1.7025335386
 C         -5.5214542961        2.3502202701       -1.0718699504
 C         -5.5352787713        2.3654214011        0.4544041268
 H         -4.5848076728        1.9775647090        0.8257542059
 H         -5.6056962604        3.4083102210        0.7749382081
 C         -6.6858503261        1.5986715537        1.1023556916
 H         -6.6277922724        1.7779902585        2.1790193594
 H         -7.6341401849        2.0095403366        0.7487210474
 C         -6.6952109741        0.0853299521        0.8742851102
 H         -7.0700152214       -0.1611880650       -0.1155304051
 H         -7.4016669240       -0.3463600393        1.5892929964
 C         -5.3554991849       -0.6027477150        1.1158352095
 H         -5.5254119221       -1.6842155428        1.1811529240
 H         -4.9751348867       -0.3124297309        2.1018634054
 H         -6.4643315003        2.7480862984       -1.4509477875
 H         -4.7181002983        3.0127894232       -1.4037237465
 H         -4.9868010626        1.1074072581       -2.7429142077
 H         -6.2037612326        0.3827188146       -1.6994589302
 O         -3.0561771453        0.2605310601       -1.7953292726
 C         -1.8590173038       -0.3167623906       -1.4144637990
 O         -0.9426040326       -0.1473114007       -2.2457716015
 O         -2.9675951803       -1.6972212844        1.7307340904
 C         -0.5594488363       -1.6775631875        0.3114908312
 C          0.4046011834       -0.6894542661        0.9229512267
 C          0.7622065349       -0.7733619623        2.2631975086
 C          1.6725668061        0.1158373803        2.8086902823
 C          2.2448964535        1.1046482547        2.0290696901
 C          1.8877679276        1.1995865396        0.6902735922
 C          0.9809358851        0.3041983074        0.1441489370
 H          0.7062456418        0.3866584472       -0.8969407111
 N          2.4809632538        2.1927767713       -0.1184533275
 S          4.1526160412        2.1012381515       -0.2273397108
 O          4.7358866657        2.6722613994        0.9607925248
 O          4.5022985112        2.7414138139       -1.4754240758
 C          4.4908413258        0.3512616942       -0.2913117338
 C          4.9966094785       -0.2925324908        0.8194323969
 C          5.1716864767       -1.6662471879        0.7741072580
 C          4.8349542807       -2.3682427262       -0.3725205617
 C          4.3295359230       -1.7061780420       -1.4809239398
 C          4.1505798619       -0.3333835616       -1.4409851447
 H          3.7611701505        0.2138777828       -2.2849660539
 H          4.0684878499       -2.2524907349       -2.3733520388
 H          4.9675506311       -3.4382970738       -0.4035414173
 H          5.5645163440       -2.1846841018        1.6336817617
 H          5.2448141086        0.2917482043        1.6900717969
 H          2.0783060938        2.2281399842       -1.0447168019
 H          2.9618054336        1.8022208141        2.4312611397
 H          1.9398602271        0.0378631898        3.8513521924
 H          0.3127516899       -1.5367120632        2.8812038917
 H         -0.9034399378       -2.3471205321        1.1109009757
 C          0.1435582869       -2.5095253248       -0.7445386040
 C          1.0845394201       -3.5903156686       -0.3080851740
 C         -0.2358844537       -3.9477974518       -0.9204633038
 H         -0.2516230948       -4.3568531550       -1.9195418292
 H         -1.0081977268       -4.3430824348       -0.2767057837
 H          1.9810277068       -3.7534953339       -0.8851184643
 H          1.2093691629       -3.7448655059        0.7526387283
 H          0.3956129410       -1.9496639544       -1.6354656748
