  62
        -98.93705698
 C         -1.0635704752       -1.5814940671        0.1270022762
 C         -1.6188200822       -0.5897507873        0.9738697265
 C         -2.5190515954        0.3964056328        0.3539192378
 C         -2.7439013870        0.3329800260       -0.9694071133
 C         -3.5539655397        1.2669355389       -1.8342451626
 C         -4.8936522788        1.7689705030       -1.2814357344
 C         -5.6557135492        0.7523609809       -0.4188399103
 H         -6.6786753544        0.6677290142       -0.7900603716
 H         -5.1938987754       -0.2324154566       -0.5093589928
 C         -5.7210748626        1.1524570123        1.0566914116
 H         -5.9442805299        2.2195787635        1.1202650141
 H         -6.5476837588        0.6163398483        1.5290418172
 C         -4.4635300686        0.8539884452        1.8714727772
 H         -4.6016862471        1.2793975276        2.8682273431
 H         -4.3521357929       -0.2264695077        1.9962740617
 C         -3.1474210609        1.3926165645        1.2861082941
 H         -2.4430037553        1.5162316546        2.1124334809
 H         -3.2912734742        2.3579788869        0.8069550564
 H         -4.7324360482        2.6781065457       -0.7040863931
 H         -5.5034662874        2.0480705401       -2.1424971447
 H         -3.7236423391        0.7166919558       -2.7633724751
 H         -2.9202024455        2.1237840203       -2.0841414553
 O         -2.1943843022       -0.6375659516       -1.7494897019
 C         -1.3388475836       -1.6086757092       -1.2410298583
 O         -0.9337094947       -2.4107906626       -2.1011680934
 O         -1.3600255506       -0.5236459530        2.2056988341
 C         -0.0949785807       -2.5524652513        0.7788896710
 C          1.2870955341       -1.9484968082        0.8346578486
 C          2.0857589612       -2.0856868670        1.9644500017
 C          3.3470497886       -1.5187509171        2.0087562842
 C          3.8211610014       -0.7749101191        0.9429594648
 C          3.0248946764       -0.6194512052       -0.1851494291
 C          1.7782717255       -1.2245223835       -0.2423674633
 H          1.1803776285       -1.1044885825       -1.1332777883
 N          3.4421106424        0.1762522235       -1.2725295638
 S          2.4419000814        1.4671434152       -1.6611074602
 O          1.2235974732        0.9977170228       -2.2674258387
 O          3.2660827562        2.3402480143       -2.4690319627
 C          2.1082128931        2.2219326163       -0.0811276220
 C          3.0158864506        3.1288478229        0.4312321525
 C          2.8148071675        3.6289193175        1.7074411072
 C          1.7283275491        3.1985809224        2.4548674767
 C          0.8274631256        2.2870339290        1.9267954983
 C          1.0140377411        1.7972389323        0.6442714122
 H          0.3257973492        1.0912149196        0.2056863111
 H         -0.0119485874        1.9304775300        2.5029075842
 H          1.5802113798        3.5744561382        3.4548299443
 H          3.5094109052        4.3430530774        2.1194714872
 H          3.8486909496        3.4319415949       -0.1826829455
 H          4.3953116220        0.5039768229       -1.1918009854
 H          4.7950530193       -0.3114089991        0.9836669383
 H          3.9591505074       -1.6386728007        2.8891934205
 H          1.7051371307       -2.6276741598        2.8173384160
 H         -0.4453552306       -2.6555418124        1.8189280383
 C         -0.0999537318       -3.9404849100        0.1569501630
 C          0.9822052844       -4.4301613303       -0.7528509906
 C          0.8609006845       -4.9909378677        0.6304215073
 H          0.5000371783       -6.0013771727        0.7479188093
 H          1.6085405374       -4.6995791224        1.3519089211
 H          0.6902977493       -5.0372297443       -1.5959350553
 H          1.8023821342       -3.7626361377       -0.9684353048
 H         -1.1063041437       -4.2719970797       -0.0776726488
