  62
        -98.93423649
 C         -2.6833254518       -1.2036559298       -0.3391629088
 C         -2.2395097776       -0.0015085386       -0.9392105425
 C         -3.1721997704        1.1383511560       -0.8801183211
 C         -4.3639354164        0.9911211612       -0.2771768270
 C         -5.4752959601        2.0007679424       -0.1363769963
 C         -5.0840203869        3.4332961165        0.2536328936
 C         -3.8494784117        3.5476018736        1.1600576536
 H         -3.5760349266        2.5657361396        1.5509535085
 H         -4.0946319024        4.1801941752        2.0153195014
 C         -2.6426496102        4.1672636885        0.4509355595
 H         -1.9520894094        4.5530832183        1.2049240282
 H         -2.9854640558        5.0166956576       -0.1441660597
 C         -1.8456799295        3.2188206285       -0.4443979584
 H         -1.2971651383        2.4997197547        0.1716824911
 H         -1.0986995610        3.8114061993       -0.9784245863
 C         -2.6722613697        2.4255874505       -1.4698463804
 H         -2.0069906926        2.1442813193       -2.2905199034
 H         -3.4846099401        3.0271926263       -1.8703396060
 H         -5.9470894912        3.8692373447        0.7594117834
 H         -4.9168414779        4.0235208930       -0.6462674889
 H         -6.0334910124        2.0258319990       -1.0766073508
 H         -6.1415179047        1.5838466362        0.6225269560
 O         -4.7487208804       -0.1860795577        0.2923898341
 C         -3.9243579235       -1.2958305554        0.2924306661
 O         -4.4029150968       -2.2907713087        0.8732241389
 H          0.7659986370       -1.7103194541       -0.9855784292
 C          0.6147403056       -1.7515367702        0.0812069851
 C         -0.6178640170       -2.1293803151        0.5875828148
 C         -0.7965447396       -2.1445306694        1.9685136124
 C          0.2354356409       -1.7920136265        2.8171743214
 C          1.4649168619       -1.4099782209        2.3080638101
 C          1.6489900340       -1.3816859326        0.9328848075
 N          2.8945606510       -0.9958756021        0.3997580396
 S          3.6339911131        0.3604449618        1.0855257742
 O          4.2951374026       -0.0495236102        2.3001537331
 O          2.6830044387        1.4410944026        1.2222891202
 C          4.8495107750        0.7445037844       -0.1592317937
 C          4.5179742481        1.6229145198       -1.1733897394
 C          5.4567902147        1.8964275636       -2.1557239393
 C          6.7022274710        1.2878944108       -2.1089483236
 C          7.0195317494        0.4078539009       -1.0850335613
 C          6.0860530887        0.1306934887       -0.0989995851
 H          6.2892415619       -0.5389472195        0.7201973855
 H          7.9894269679       -0.0615079238       -1.0517722471
 H          7.4303075974        1.5032336111       -2.8749998655
 H          5.2130940158        2.5814411693       -2.9518948743
 H          3.5403421216        2.0789226345       -1.1665322597
 H          2.8462411036       -0.8940745855       -0.6056326164
 H          2.2734895581       -1.1156164068        2.9575139387
 H          0.0825997689       -1.8079605784        3.8861651700
 H         -1.7639533677       -2.4214185860        2.3656564540
 C         -1.7976650319       -2.4393570371       -0.3014141858
 H         -2.3941925964       -3.2219183444        0.1860794251
 C         -1.4229495815       -2.9070374603       -1.6915503074
 C         -0.8675556366       -4.2863137357       -1.8762765763
 C         -2.2515931207       -3.9653770735       -2.3525996489
 H         -2.4281749373       -3.8912173032       -3.4151711554
 H         -3.0897906411       -4.3619478679       -1.7983422294
 H         -0.7646220534       -4.9020360022       -0.9955586528
 H         -0.0930367301       -4.4376619077       -2.6124349131
 H         -1.0413639064       -2.1144883961       -2.3228240814
 O         -1.1276051727        0.1249501589       -1.5159549214
