  62
        -98.94430952
 C         -2.0855601570       -1.3846553551        0.0275537410
 C         -2.3911855438       -0.4255018819       -0.9681330063
 C         -3.7408789210        0.1567962430       -0.9093190975
 C         -4.5965179854       -0.2376299895        0.0501021503
 C         -5.9747575649        0.3181996837        0.2573110860
 C         -5.9551207227        1.5028286205        1.2334628019
 C         -4.8941703544        2.5545104969        0.9084418154
 H         -4.9951813426        3.3562008862        1.6433059714
 H         -3.9026108999        2.1168836648        1.0471739650
 C         -4.9949618212        3.1425752340       -0.5060050691
 H         -5.9855687744        2.9478174239       -0.9186061920
 H         -4.8774409151        4.2265288312       -0.4432957580
 C         -3.9312118648        2.6355666587       -1.4816129384
 H         -2.9409557605        2.7446779147       -1.0313228003
 H         -3.9569465084        3.2701892981       -2.3716571029
 C         -4.0929984832        1.1835228543       -1.9491865742
 H         -5.1087151532        1.0268811986       -2.3174766619
 H         -3.3982802587        1.0227407071       -2.7787011678
 H         -6.9427118643        1.9676444999        1.2322181730
 H         -5.7604970710        1.1207411187        2.2382572601
 H         -6.3836398544        0.6307175447       -0.7015661435
 H         -6.6048551801       -0.4710258997        0.6709001316
 O         -4.2759555539       -1.1697990839        0.9818617428
 C         -3.0230950017       -1.7551916452        0.9987552494
 O         -2.8645405304       -2.5901125709        1.9113766313
 H          0.2638653759        0.2503749027       -0.7918727484
 C          0.7116899899       -0.0343760852        0.1485733404
 C          0.2989818748       -1.2042841462        0.7705275073
 C          0.8775061398       -1.5507703784        1.9858843919
 C          1.8377217206       -0.7404650330        2.5670023939
 C          2.2411378772        0.4288555027        1.9481922834
 C          1.6680980600        0.7830174384        0.7331337296
 N          2.0745620228        1.9661368480        0.0918331635
 S          3.7203550757        2.2420332820       -0.0307711174
 O          4.2064746157        2.8165827011        1.1995950834
 O          3.8881371133        3.0562288945       -1.2140255934
 C          4.4452775581        0.6285550045       -0.2681474451
 C          5.3607628901        0.1437826833        0.6432737048
 C          5.8838375128       -1.1260075268        0.4574636755
 C          5.4801118534       -1.8866050262       -0.6285471845
 C          4.5617896004       -1.3836929409       -1.5375420109
 C          4.0372460406       -0.1144392889       -1.3583426381
 H          3.3233073605        0.3041771889       -2.0496773289
 H          4.2488744961       -1.9762067478       -2.3822088089
 H          5.8826180431       -2.8772464574       -0.7693780418
 H          6.5997705602       -1.5185785277        1.1614221275
 H          5.6425451438        0.7673044456        1.4760857727
 H          1.6061827290        2.1284389433       -0.7877519936
 H          2.9807433740        1.0770986813        2.3898388669
 H          2.2755061657       -1.0209639994        3.5127268508
 H          0.5581974468       -2.4556598492        2.4820445971
 C         -0.7412361046       -2.0909522625        0.1280002679
 H         -0.9092984854       -2.9451444391        0.7968952254
 C         -0.2493543947       -2.6196340476       -1.2065392134
 C          0.7696454931       -3.7172117496       -1.2206653915
 C         -0.6425847505       -3.9995567830       -1.6358248775
 H         -0.8515258805       -4.1738671431       -2.6807293823
 H         -1.2682175721       -4.5719026630       -0.9660748447
 H          1.1046089408       -4.1011502705       -0.2691902839
 H          1.5336939005       -3.6999806638       -1.9821983681
 H         -0.1863071264       -1.8605614014       -1.9745163040
 O         -1.5966042547       -0.0535402509       -1.8742298484
