  62
        -98.93384428
 C         -2.3773512606       -0.7607348139        0.1979893784
 C         -2.5947315830        0.3341341070        1.0668093114
 C         -2.8145560421        1.6567437798        0.4514722105
 C         -2.7700929352        1.7582321663       -0.8895195111
 C         -2.9302998582        2.9898275128       -1.7411182574
 C         -1.6747849575        3.8754261948       -1.7408124095
 C         -1.0452141979        4.0967120155       -0.3680287006
 H         -0.7632609307        3.1310275839        0.0581932753
 H         -0.1181545695        4.6574189102       -0.5157657043
 C         -1.9059701343        4.8729140703        0.6265815451
 H         -1.2973753110        5.0355333438        1.5199097073
 H         -2.1442372524        5.8515123163        0.2035962516
 C         -3.2108524359        4.2006519343        1.0596991837
 H         -3.9777402785        4.2998224878        0.2961931772
 H         -3.5763284871        4.7384516879        1.9394390740
 C         -3.0671446988        2.7394098291        1.4726559471
 H         -3.9755005148        2.4350380180        2.0071361333
 H         -2.2584625614        2.6515910421        2.2080432290
 H         -1.9315160099        4.8382082327       -2.1864609860
 H         -0.9232637874        3.3961845740       -2.3729564271
 H         -3.1100949515        2.6425105164       -2.7610176778
 H         -3.8023679330        3.5536082619       -1.4233235716
 O         -2.5209239587        0.6825059044       -1.6886577074
 C         -2.2926205565       -0.5849592399       -1.1831247599
 O         -2.0418391374       -1.4385836771       -2.0548496659
 O         -2.6013427173        0.2180040324        2.3241667091
 C         -2.0927244613       -2.1147762219        0.8209898308
 C         -0.8273280700       -2.6913548145        0.2343491246
 C         -0.7097839983       -3.9900473210       -0.2407520561
 C          0.4974316264       -4.4400480776       -0.7488244131
 C          1.6028799909       -3.6128692304       -0.7960414003
 C          1.4918371415       -2.3042212050       -0.3341947579
 C          0.2893595991       -1.8646524340        0.1897257333
 H          0.2126862130       -0.8507029260        0.5572227043
 N          2.5803139662       -1.4226021906       -0.4273715010
 S          2.6335127339       -0.0191462558        0.4952662426
 O          2.4618658319       -0.3287708364        1.8987215904
 O          1.7221643577        0.9475603389       -0.0646782214
 C          4.3170640040        0.4810695869        0.1882969075
 C          4.5986430507        1.2237297911       -0.9424968866
 C          5.9129244262        1.5806946858       -1.1997814590
 C          6.9184410900        1.1902807733       -0.3278269683
 C          6.6205606050        0.4474629972        0.8047708696
 C          5.3083094165        0.0869725183        1.0674910773
 H          5.0275069750       -0.4802376920        1.9403187713
 H          7.4035646574        0.1486843518        1.4828330051
 H          7.9402289406        1.4693075823       -0.5309144336
 H          6.1472596663        2.1610469469       -2.0775544144
 H          3.7825335201        1.5097402373       -1.5857370857
 H          3.4759495057       -1.8839517911       -0.4964600213
 H          2.5395196232       -3.9646581663       -1.2002382025
 H          0.5761576555       -5.4520558291       -1.1162608905
 H         -1.5644894342       -4.6460442010       -0.2305809847
 H         -1.8872549106       -1.8838633718        1.8814282505
 C         -3.2685154958       -3.0801262831        0.8105843492
 C         -4.6763788339       -2.5860453462        0.6677484119
 C         -4.0459927347       -3.3801767995       -0.4346469493
 H         -4.3869413392       -4.3928102770       -0.5933757098
 H         -3.7530588268       -2.8678098606       -1.3371282068
 H         -5.4453500894       -3.0508500363        1.2665522009
 H         -4.8210954352       -1.5260157174        0.5154570119
 H         -3.1222314204       -3.9038408617        1.5027939650
