  62
        -98.92951191
 C         -2.4633928076       -0.9012390384        0.7501309051
 C         -2.7981284792       -0.4482949327       -0.5483123307
 C         -3.6030712126        0.7889748227       -0.6213057506
 C         -3.9336725007        1.4279137990        0.5131929443
 C         -4.7068969748        2.7097145547        0.6571836379
 C         -3.7569993726        3.9174172822        0.7251050915
 C         -3.3639508163        4.5045369888       -0.6299239579
 H         -4.2271984941        5.0132620923       -1.0640512727
 H         -2.5964641055        5.2600038218       -0.4468275545
 C         -2.8279544770        3.4958158337       -1.6492535644
 H         -2.2540334638        4.0471594443       -2.3965661028
 H         -2.1386312175        2.8055677001       -1.1590935889
 C         -3.9386513711        2.7071512172       -2.3587488691
 H         -4.8995498327        3.1780159519       -2.1518062822
 H         -3.7913167499        2.7673117754       -3.4391321350
 C         -4.0074626492        1.2144325275       -2.0066450251
 H         -3.3424179078        0.6537294589       -2.6715546937
 H         -5.0217931648        0.8488281553       -2.2003427802
 H         -4.2351301593        4.7062014313        1.3094070152
 H         -2.8598111207        3.6075190383        1.2670813907
 H         -5.4256040017        2.8187197956       -0.1494591625
 H         -5.2480967238        2.6399825642        1.6031929645
 O         -3.5350531663        0.9903856205        1.7404794108
 C         -2.7939469054       -0.1659741280        1.8906868434
 O         -2.4849286807       -0.4267536663        3.0711864302
 O         -2.4522497464       -1.0347573204       -1.6056315250
 C         -1.6653885726       -2.1740057379        0.9753151404
 C         -0.4755887733       -2.2170298125        0.0475783232
 C         -0.2939056551       -3.1880453242       -0.9271294961
 C          0.8294072631       -3.1645025462       -1.7354445346
 C          1.7907206165       -2.1818554516       -1.5907265280
 C          1.6209692003       -1.2064372300       -0.6162568867
 C          0.4982029791       -1.2365051652        0.1972348712
 H          0.3621733154       -0.4767535168        0.9584522148
 N          2.5860201034       -0.1889131933       -0.4692004283
 S          4.2036250718       -0.6815337015       -0.4395580737
 O          4.6407578579       -0.8993423317       -1.7953446216
 O          4.3640044852       -1.8004908343        0.4627060816
 C          4.9996616304        0.7689086982        0.2220342476
 C          5.2991516392        1.8121201351       -0.6335592743
 C          5.9052026388        2.9468740717       -0.1183701868
 C          6.1995380379        3.0194398198        1.2352079949
 C          5.8931075251        1.9642112456        2.0812728620
 C          5.2857163769        0.8267277633        1.5728268672
 H          5.0390756956       -0.0213539658        2.1916693918
 H          6.1254421354        2.0221878218        3.1325395241
 H          6.6736412760        3.9026753074        1.6332512545
 H          6.1472391863        3.7687260492       -0.7727652120
 H          5.0614179909        1.7070146578       -1.6791850629
 H          2.3855740909        0.4040547484        0.3251120114
 H          2.6704727031       -2.1586235055       -2.2133260348
 H          0.9572031851       -3.9221579887       -2.4941290720
 H         -1.0424372099       -3.9496719105       -1.0707777281
 H         -1.2790478258       -2.0857013391        2.0046371660
 C         -2.5010966589       -3.4450225945        0.9407074624
 C         -3.9305974193       -3.4358799027        1.3919171836
 C         -3.6016541644       -3.6646999734       -0.0512506143
 H         -3.7346198454       -4.6582349146       -0.4541150166
 H         -3.8035147740       -2.8771205788       -0.7593486885
 H         -4.2885584598       -4.2681878469        1.9790684378
 H         -4.3585243360       -2.4852942934        1.6762960197
 H         -1.9163491360       -4.3163493378        1.2202794886
