  62
        -98.94420330
 C         -2.0721627079       -1.3010700273       -0.1195037721
 C         -2.4600368341       -0.2485564213       -0.9838772256
 C         -3.8555536543        0.1937201808       -0.8608474603
 C         -4.6801591096       -0.4146683442        0.0103322367
 C         -6.1322746404       -0.0898853292        0.2325911179
 C         -6.3676781909        1.0726327702        1.2066839204
 C         -6.0217116761        2.4585718437        0.6607414648
 H         -6.5205423331        2.6054012673       -0.2977740892
 H         -6.4349581753        3.1900462028        1.3580772323
 C         -4.5170187244        2.7211261055        0.5056343626
 H         -3.9555667321        1.9889823235        1.0909351951
 H         -4.2747623392        3.7058412582        0.9118032266
 C         -4.0130575762        2.6908571440       -0.9374368193
 H         -2.9315690133        2.8507414681       -0.9250115458
 H         -4.4678736026        3.5083142477       -1.5014888520
 C         -4.2898309244        1.3744352805       -1.6755924774
 H         -5.3477911575        1.2981928789       -1.9255429945
 H         -3.7093862935        1.3723747811       -2.6014565793
 H         -5.7940597308        0.8866787581        2.1176548230
 H         -7.4269527839        1.0649039635        1.4736281954
 H         -6.5910545169       -0.9879517259        0.6517617705
 H         -6.6098719367        0.1311490994       -0.7223003283
 O         -4.2752557344       -1.4413903181        0.8040165185
 C         -2.9636820081       -1.8839702335        0.7842260379
 O         -2.7182807990       -2.7954470799        1.5995411290
 O         -1.6952591850        0.2954650219       -1.8225734420
 C         -0.6421653874       -1.8171527486       -0.1019653713
 C          0.2512938965       -0.7221079931        0.4268565322
 C          0.3003114069       -0.4911875446        1.7987795069
 C          1.0870913239        0.5194903925        2.3188337439
 C          1.8397210830        1.3239157471        1.4806895214
 C          1.7904841813        1.1056174418        0.1109397302
 C          1.0094752383        0.0821170910       -0.4091560705
 H          0.9721703971       -0.0668344365       -1.4763168317
 N          2.5688467409        1.9121742569       -0.7426888625
 S          4.2110859199        1.9445430630       -0.4122545726
 O          4.4665178567        2.8596866901        0.6716573128
 O          4.8555615310        2.2559861902       -1.6684810331
 C          4.5873735037        0.2766434155        0.0982169427
 C          4.4908512457       -0.7274307289       -0.8449504395
 C          4.7064689000       -2.0382565901       -0.4533218693
 C          5.0081895513       -2.3217923942        0.8700502845
 C          5.1041418634       -1.3024426477        1.8042701760
 C          4.8885220305        0.0108931577        1.4181278444
 H          4.9504997144        0.8326434119        2.1124774411
 H          5.3401906060       -1.5264052128        2.8320830467
 H          5.1698194128       -3.3441326655        1.1737334564
 H          4.6329382006       -2.8334315419       -1.1778259385
 H          4.2604871538       -0.4705271742       -1.8664339331
 H          2.4031784590        1.7310875220       -1.7222316009
 H          2.4607179520        2.1174630953        1.8640641656
 H          1.1157292953        0.6839622298        3.3852540176
 H         -0.2950891599       -1.1145705585        2.4517757438
 H         -0.6304866601       -2.6420090488        0.6226728978
 C         -0.2139203006       -2.3492070510       -1.4540413921
 C          1.0521429102       -3.1449584063       -1.5558919726
 C         -0.2750305427       -3.8225946176       -1.7148510175
 H         -0.5690665076       -4.1590958812       -2.6978654028
 H         -0.6262497594       -4.4574111190       -0.9145704629
 H          1.6709946490       -3.0194489507       -2.4312127932
 H          1.6050029598       -3.3152717947       -0.6444804799
 H         -0.4688629209       -1.6905607375       -2.2749909959
