  62
        -98.94118880
 C         -1.9037074027       -1.5553082475        0.1946994268
 C         -2.5473711330       -0.6710822487        1.1006578660
 C         -3.4723367819        0.3055725315        0.5160709913
 C         -3.6861806761        0.3062398750       -0.8118302921
 C         -4.6437079990        1.1969345443       -1.5566671683
 C         -4.0816072534        2.5827379077       -1.9016466262
 C         -3.9321177502        3.5364091384       -0.7157980132
 H         -3.7386274097        4.5296964545       -1.1256782985
 H         -4.8753405264        3.5874468854       -0.1711836000
 C         -2.7953381838        3.1688542108        0.2481583078
 H         -2.1206989610        2.4643234196       -0.2445696081
 H         -2.2165417722        4.0659131016        0.4808288043
 C         -3.2576953595        2.5665086585        1.5753654848
 H         -2.3744264351        2.3041672007        2.1634125305
 H         -3.8271901236        3.3109028867        2.1359283294
 C         -4.1171079023        1.3039682795        1.4294277923
 H         -5.1112365758        1.5646212504        1.0665393584
 H         -4.2134833739        0.8387807047        2.4133609583
 H         -3.1138944492        2.4562578539       -2.3930596578
 H         -4.7622240530        3.0386474127       -2.6244484170
 H         -5.5604760871        1.3102438144       -0.9769351051
 H         -4.8843858510        0.6817563649       -2.4892832907
 O         -3.0513223611       -0.5539675137       -1.6493824118
 C         -2.1293861277       -1.4856013581       -1.1806090213
 O         -1.6071163131       -2.1600813811       -2.0882428570
 O         -2.3666262765       -0.7099747004        2.3460853871
 C         -0.9685453096       -2.5849610045        0.8055930658
 C          0.4601359039       -2.1045674632        0.8190016150
 C          1.2265908047       -2.1692220063        1.9767001919
 C          2.5399184065       -1.7311031602        1.9787004654
 C          3.1117395680       -1.2123600471        0.8311258956
 C          2.3478563183       -1.1281920130       -0.3265392118
 C          1.0339325130       -1.5742824136       -0.3282621536
 H          0.4498051011       -1.5189816444       -1.2353748235
 N          2.9088817118       -0.5773220888       -1.4904440019
 S          3.8036455150        0.8270369197       -1.3307926341
 O          3.6347299058        1.5340775093       -2.5808170750
 O          5.1617591769        0.4930060114       -0.9794763181
 C          3.0505848238        1.7339933473        0.0104249058
 C          3.8232724144        2.1289460614        1.0835946708
 C          3.2242597345        2.8205569174        2.1242397312
 C          1.8674613400        3.0990483091        2.0762688735
 C          1.1047118363        2.6979344923        0.9900888448
 C          1.6993349746        2.0108970668       -0.0553913225
 H          1.1283232242        1.6887881897       -0.9124799885
 H          0.0480695651        2.9103008982        0.9567236183
 H          1.3972532491        3.6305683728        2.8883790715
 H          3.8149311593        3.1349249802        2.9694130400
 H          4.8729099195        1.8837294923        1.0828000327
 H          2.2663930980       -0.5240412318       -2.2671796481
 H          4.1353658270       -0.8748207139        0.8108162092
 H          3.1249807976       -1.7923518904        2.8832061752
 H          0.7829286361       -2.5568010912        2.8817614439
 H         -1.2957738998       -2.6647119778        1.8543489712
 C         -1.1170198267       -3.9665673399        0.1819264282
 C         -0.0849245066       -4.5973617110       -0.6989303090
 C         -0.2955629780       -5.1141061903        0.6907610256
 H         -0.7717388633       -6.0738567276        0.8217910400
 H          0.4662847192       -4.8931380236        1.4230209977
 H         -0.4337072081       -5.1845932604       -1.5347791978
 H          0.8183816595       -4.0460409373       -0.9077009750
 H         -2.1512672143       -4.1835878246       -0.0671605744
