  62
        -98.94795571
 C         -1.2555436798       -0.7628326905        0.3879233007
 C         -2.0981778302       -0.5862936206       -0.7353386390
 C         -3.0666725404        0.5127971891       -0.6356685386
 C         -3.0583384303        1.3184199690        0.4416536715
 C         -3.9615037105        2.5001091488        0.6704528218
 C         -5.3313382803        2.1361349384        1.2597395022
 C         -6.2936884404        1.4462548682        0.2919730324
 H         -7.2774373402        1.4458428980        0.7655310527
 H         -6.3722068008        2.0364366283       -0.6215663775
 C         -5.9129947201        0.0007514984       -0.0571947679
 H         -6.7988172999       -0.6348024518        0.0087037023
 H         -5.1944991098       -0.3734030715        0.6755490319
 C         -5.3289295805       -0.1802996913       -1.4583064981
 H         -6.0854134307        0.0681389986       -2.2058970278
 H         -5.0622201702       -1.2324931113       -1.5850142982
 C         -4.0758168808        0.6613903590       -1.7339792783
 H         -3.6145766609        0.3013143792       -2.6570316085
 H         -4.3460639510        1.7092000090       -1.8649029481
 H         -5.7953791404        3.0646603082        1.6003073624
 H         -5.1766596099        1.5013458383        2.1352584221
 H         -4.0975380209        3.0426588888       -0.2657356281
 H         -3.4433285705        3.1538999688        1.3757451818
 O         -2.1832284300        1.1577702491        1.4701780212
 C         -1.2704614997        0.1158370094        1.4706840008
 O         -0.5311305794        0.0798039494        2.4767664006
 O         -2.0470980803       -1.3041914805       -1.7679188791
 C         -0.2308960295       -1.8815940003        0.4007718303
 C          0.7942661301       -1.6644276099       -0.6868515599
 C          1.3256373701       -2.6896376997       -1.4591035902
 C          2.2892054498       -2.4159136394       -2.4148135404
 C          2.7648793194       -1.1303139392       -2.6005915104
 C          2.2443177194       -0.0993683994       -1.8270429602
 C          1.2612446697       -0.3735529298       -0.8908456899
 H          0.8437945897        0.4408079601       -0.3188213697
 N          2.7019723090        1.2212817307       -1.9597317902
 S          2.8665596392        2.1518599106       -0.5774970001
 O          1.5800033192        2.6267721602       -0.1327122097
 O          3.8185639188        3.1770699509       -0.9511334703
 C          3.6054283898        1.0513479106        0.6174395396
 C          2.8806817602        0.5644045304        1.6855093197
 C          3.4877573807       -0.3361083596        2.5481007795
 C          4.7976292707       -0.7321438192        2.3313309590
 C          5.5157549203       -0.2262239489        1.2580000889
 C          4.9151070398        0.6709866310        0.3914423392
 H          5.4427093195        1.0954908312       -0.4472033009
 H          6.5365705303       -0.5310007187        1.0935199586
 H          5.2605928111       -1.4364515392        3.0043297488
 H          2.9211501810       -0.7229388198        3.3803486796
 H          1.8590302602        0.8775867801        1.8372991700
 H          3.4826961988        1.3402813410       -2.5885378504
 H          3.5232906192       -0.9219837590       -3.3393122206
 H          2.6850847298       -3.2191875092       -3.0171637106
 H          0.9805027304       -3.7006781498       -1.3183279502
 H          0.2932317007       -1.7993850202        1.3652986502
 C         -0.9125035692       -3.2322117704        0.3302680404
 C         -0.3013273987       -4.4226648104        1.0043222301
 C         -1.5348682687       -3.7908135307        1.5735350205
 H         -2.4738989786       -4.3168819509        1.4890799607
 H         -1.4425375886       -3.2075511108        2.4786103705
 H         -0.3957951986       -5.3882701603        0.5309051200
 H          0.6294745414       -4.2764544802        1.5310485698
 H         -1.4396665994       -3.3834594605       -0.6042867495
