  62
        -98.93934089
 C          1.2679372500        0.9735024601        0.4338019693
 C          2.2415619199        0.9092577198       -0.5911158708
 C          3.1421704096       -0.2598829404       -0.5704474608
 C          2.9984359395       -1.1991058003        0.3814425092
 C          3.7313552893       -2.5049521304        0.6073501092
 C          5.0934198291       -2.7576024208       -0.0355802609
 C          6.2143985894       -1.8374316310        0.4446137189
 H          6.4277209594       -2.0624068610        1.4927537689
 H          7.1123056893       -2.0674572212       -0.1334333212
 C          5.9293840497       -0.3408633609        0.3418697689
 H          5.1193656998       -0.0734717707        1.0238131789
 H          6.8216412698        0.1925618389        0.6811699887
 C          5.5883297396        0.1667548691       -1.0584001111
 H          6.3668977995       -0.1392412911       -1.7597105512
 H          5.5857911299        1.2592276491       -1.0178024512
 C          4.2223711695       -0.2776777007       -1.6128530110
 H          4.2835508592       -1.2555785307       -2.0839961709
 H          3.9209935296        0.4393469794       -2.3815640510
 H          5.0139830590       -2.7200801408       -1.1179728809
 H          5.3734497389       -3.7817249208        0.2262114891
 H          3.8254291594       -2.6057901404        1.6932195792
 H          3.0477977490       -3.2968029203        0.2809941593
 O          2.0290979996       -1.1048130500        1.3389470793
 C          1.1675233399       -0.0258134998        1.4032024994
 O          0.3671390200       -0.0718472096        2.3600367495
 O          2.3755625199        1.7734296097       -1.4955445109
 C          0.2628506102        2.1097558003        0.5503367694
 C         -0.8532422299        1.9026265505       -0.4460705905
 C         -0.6917222200        2.1679984904       -1.8020712305
 C         -1.7303562602        1.9410823806       -2.6861574404
 C         -2.9404140302        1.4365369108       -2.2431337803
 C         -3.1109002301        1.1640366509       -0.8911192102
 C         -2.0717986400        1.4064703308       -0.0033124204
 H         -2.2203399399        1.1984786709        1.0456806797
 N         -4.3306653002        0.6593112712       -0.4108382501
 S         -4.3360912503       -0.5702802287        0.7238385700
 O         -5.6705856704       -1.1236491484        0.6383356902
 O         -3.9466038101       -0.0586678287        2.0120164099
 C         -3.1545044606       -1.7572900790        0.1119257399
 C         -1.8833978606       -1.8213119692        0.6430338398
 C         -0.9778073008       -2.7199339295        0.0995832198
 C         -1.3537118111       -3.5326778794       -0.9575322502
 C         -2.6384190612       -3.4602706792       -1.4759118600
 C         -3.5467514909       -2.5630961790       -0.9404553500
 H         -4.5580673010       -2.4859427188       -1.3057314699
 H         -2.9306641814       -4.0983670092       -2.2942148900
 H         -0.6430519513       -4.2281104896       -1.3757151302
 H          0.0181515692       -2.7683401196        0.5125265696
 H         -1.6049480504       -1.1821403092        1.4664655597
 H         -5.0210299303        0.4896708413       -1.1281637200
 H         -3.7486746003        1.2572990210       -2.9356237902
 H         -1.5935882102        2.1522088005       -3.7358467804
 H          0.2595740600        2.5288511302       -2.1587771907
 H         -0.1717345497        2.0176797705        1.5553005994
 C          0.8957224705        3.4814825102        0.4301999792
 C          0.1411729208        4.6708211104        0.9398251792
 C          1.3556672608        4.1836442501        1.6705226491
 H          2.2587249009        4.7737388099        1.6242895790
 H          1.2139420208        3.6774948702        2.6149223692
 H          0.2081649510        5.5980581403        0.3919508892
 H         -0.8248713792        4.4939022806        1.3892019193
 H          1.4968434604        3.6077462200       -0.4598885209
