  62
        -98.93941390
 C          1.9158767182        0.9006429890        0.2166575432
 C          2.3151237120       -0.0855102018        1.1522489824
 C          2.5901573405       -1.4199448543        0.6114787776
 C          2.3846839990       -1.6623313131       -0.6954887471
 C          2.5726250587       -2.9831524364       -1.3917303448
 C          4.0191278347       -3.2699592142       -1.8175825889
 C          4.9789809681       -3.6066641539       -0.6757837167
 H          4.5519584432       -4.4050632927       -0.0682465567
 H          5.8931461413       -3.9942774502       -1.1294786365
 C          5.3399030559       -2.4132917646        0.2196925132
 H          5.0815157887       -1.4834139066       -0.2922693931
 H          6.4187730396       -2.3969241460        0.3889093164
 C          4.6662930467       -2.4245045738        1.5920048940
 H          4.9630308666       -1.5193569940        2.1280973528
 H          5.0160273598       -3.2856508709        2.1654894903
 C          3.1329892436       -2.4625369693        1.5416413022
 H          2.7887811874       -3.4530734668        1.2437247696
 H          2.7481321852       -2.2459830068        2.5415514692
 H          3.9927916482       -4.1190796502       -2.5042682838
 H          4.3973914142       -2.4067197984       -2.3698191485
 H          2.2127332895       -3.7867156876       -0.7481475986
 H          1.9467466603       -2.9508496687       -2.2862157340
 O          1.9461115526       -0.7056390009       -1.5539517877
 C          1.6989538820        0.5921460378       -1.1275784642
 O          1.3036535715        1.3499544665       -2.0336012547
 O          2.4279681067        0.1393759842        2.3889817702
 C          1.5850204625        2.2831392280        0.7489698479
 C          0.2308076812        2.7172642398        0.2434423767
 C         -0.0380591146        3.9723326858       -0.2837627467
 C         -1.3161335161        4.2898419774       -0.7137164378
 C         -2.3406072969        3.3660790296       -0.6453060339
 C         -2.0775356650        2.0992944558       -0.1302178703
 C         -0.8104005128        1.8000179517        0.3352976025
 H         -0.6199767210        0.8220128117        0.7555026823
 N         -3.0844822904        1.1198253906       -0.1195439070
 S         -2.8477712072       -0.4037826377        0.5323245325
 O         -2.6714004553       -0.3345433274        1.9685870017
 O         -1.8111837396       -1.0780962493       -0.2094566072
 C         -4.4301893797       -1.1320706817        0.1537182621
 C         -5.3607372653       -1.3254991975        1.1564184531
 C         -6.5917142345       -1.8748002508        0.8320473912
 C         -6.8701814584       -2.2168123033       -0.4824164385
 C         -5.9253021845       -2.0178036364       -1.4785868252
 C         -4.6927856297       -1.4705293206       -1.1605971255
 H         -3.9233865910       -1.3049927356       -1.8972077438
 H         -6.1437174339       -2.2871710750       -2.4993677158
 H         -7.8284759086       -2.6436917355       -0.7326997954
 H         -7.3267204926       -2.0334397190        1.6045386978
 H         -5.0961012227       -1.0492369884        2.1643371539
 H         -4.0190546133        1.4756748813        0.0153392558
 H         -3.3306881202        3.6092293804       -0.9978763197
 H         -1.5126665000        5.2710840099       -1.1185248028
 H          0.7524313858        4.6989738967       -0.3740355816
 H          1.4979087417        2.1350828030        1.8401354696
 C          2.6775293734        3.3219759288        0.5407811756
 C          4.0938565591        2.9148449895        0.2673361866
 C          3.2853582000        3.5785509916       -0.8045564511
 H          3.5288794162        4.5965861061       -1.0712803734
 H          2.9315848050        2.9797133705       -1.6287622009
 H          4.8878530837        3.4743620858        0.7390000892
 H          4.3007567030        1.8585715153        0.1711197301
 H          2.5483818841        4.1836014546        1.1886464599
