  62
        -98.93577300
 C         -1.9487212376       -1.5996104255        0.0228175491
 C         -1.6412628659       -0.2923009107       -0.4280541663
 C         -2.7821592993        0.6377099298       -0.5427871376
 C         -4.0214096803        0.2133846667       -0.2456685758
 C         -5.3237530027        0.9659342964       -0.3576816762
 C         -5.3508568729        2.4113523184        0.1586565809
 C         -4.4191496151        2.6933375750        1.3460951413
 H         -4.9876615276        3.1954147007        2.1313460332
 H         -4.0480527951        1.7555128947        1.7632185880
 C         -3.2376063694        3.5919242249        0.9743054600
 H         -2.8407219101        4.0430902741        1.8869741943
 H         -3.6043838889        4.4038237417        0.3423072064
 C         -2.0719748310        2.8973315603        0.2700913497
 H         -1.3705753703        3.6716430446       -0.0466756399
 H         -1.5408727362        2.2519048194        0.9749891034
 C         -2.4418338279        2.0417646724       -0.9522472052
 H         -3.2440145664        2.4990505881       -1.5266712649
 H         -1.5538914385        1.9624583181       -1.5850574703
 H         -5.1044418552        3.0932598632       -0.6540836782
 H         -6.3818739477        2.6250212269        0.4456331663
 H         -6.0472790796        0.3649966577        0.1985062364
 H         -5.6344182789        0.9543377022       -1.4065151449
 O         -4.2692784040       -1.0534942759        0.1941092988
 C         -3.2496484207       -1.9725717654        0.3659104280
 O         -3.6227551928       -3.0708866996        0.8254381907
 O         -0.4854738096        0.0923699379       -0.7365474589
 C         -0.8715082497       -2.6532779781        0.2182191695
 C          0.3351458697       -2.0299538060        0.8742638823
 C          0.1984778145       -1.4919612935        2.1510942655
 C          1.2647587891       -0.8768326302        2.7781984435
 C          2.4943126458       -0.7886627661        2.1488034622
 C          2.6406586379       -1.3226996263        0.8763906574
 C          1.5683316040       -1.9437879801        0.2495813596
 H          1.6947122772       -2.3317556229       -0.7489208820
 N          3.8854084906       -1.2411686786        0.2232066774
 S          4.6196202870        0.2583343502        0.0988654663
 O          5.6285698039        0.0928995826       -0.9239337966
 O          5.0966559684        0.6636275121        1.3975610208
 C          3.3487033670        1.3714321232       -0.4665589456
 C          3.0215813666        1.3590169800       -1.8073366150
 C          2.0142711479        2.1941332249       -2.2587605599
 C          1.3508235660        3.0182370144       -1.3642053623
 C          1.6861996103        3.0138330541       -0.0201971771
 C          2.6934965842        2.1808821374        0.4375509852
 H          2.9860569054        2.1514773982        1.4744380613
 H          1.1637168527        3.6520192404        0.6744988305
 H          0.5665308848        3.6683862281       -1.7196165631
 H          1.7452517395        2.1959370397       -3.3030577610
 H          3.5679123130        0.7112656150       -2.4743912374
 H          3.8895078111       -1.6945847528       -0.6795331242
 H          3.3361941437       -0.3077504338        2.6199051353
 H          1.1397363051       -0.4603952748        3.7666286567
 H         -0.7647414335       -1.5508875767        2.6407638602
 H         -1.3059016957       -3.3775529183        0.9269863439
 C         -0.5334688123       -3.4329464227       -1.0442808664
 C         -1.5691814593       -3.6777057553       -2.0994757765
 C         -0.4105151149       -2.7720437980       -2.3834990134
 H          0.3554957515       -3.1221252595       -3.0605620272
 H         -0.5866652964       -1.7091664738       -2.4332331386
 H         -1.5962177187       -4.6468860283       -2.5746621165
 H         -2.5447635578       -3.2365598806       -1.9560170653
 H          0.1450562476       -4.2561931790       -0.8406265045
