  62
        -98.94642820
 C         -1.5582640921       -1.0984038585        0.0303891249
 C         -2.6126104866       -0.8202901877        0.9371699766
 C         -3.3316181022        0.4424431680        0.7262079997
 C         -2.9337382131        1.2677303487       -0.2589391434
 C         -3.5970262893        2.5676769882       -0.6083404244
 C         -4.6843926375        2.3668016300       -1.6733194215
 C         -5.6547739127        1.2283614053       -1.3584144571
 H         -5.1137299964        0.2797240190       -1.3864060574
 H         -6.3936410799        1.1996384281       -2.1622503175
 C         -6.3734428933        1.3610490700       -0.0084002012
 H         -7.4316183203        1.1319999871       -0.1513668860
 H         -6.3107212276        2.3907855266        0.3453361887
 C         -5.8575345063        0.4186221354        1.0807908220
 H         -5.8336419234       -0.6048554372        0.6979026035
 H         -6.5672495261        0.4396129652        1.9121067793
 C         -4.4737856473        0.7531883171        1.6519196896
 H         -4.3201774970        0.1296309405        2.5374291106
 H         -4.4471885170        1.7999621549        1.9610341944
 H         -4.1994861594        2.1483969955       -2.6276851892
 H         -5.2393191949        3.3005622726       -1.7808366019
 H         -4.0305166942        3.0015402385        0.2905047270
 H         -2.8407347628        3.2491162216       -1.0014439369
 O         -1.8985297055        0.9832695688       -1.0878580267
 C         -1.1953157963       -0.2091060842       -0.9809155655
 O         -0.2956820114       -0.3393253053       -1.8324802589
 H          1.5194720955       -2.0459044959       -1.2479485274
 C          1.6595132742       -1.8128018401       -0.2047614004
 C          0.6126435196       -1.9771418189        0.6883718399
 C          0.8186494497       -1.6468155221        2.0253118112
 C          2.0410738646       -1.1652274029        2.4547552520
 C          3.0761624664       -0.9756346182        1.5550990875
 C          2.8738395555       -1.2898830201        0.2181756421
 N          3.8973886408       -1.0377045097       -0.7141303717
 S          4.6238570438        0.4685438289       -0.6217785154
 O          5.0213010905        0.7893615717       -1.9752880653
 O          5.6965853763        0.4196763961        0.3423716893
 C          3.3686479362        1.6043276721       -0.0482937425
 C          2.1518203799        1.6494182744       -0.6989291378
 C          1.1834046480        2.5302834258       -0.2450239113
 C          1.4445366104        3.3508965815        0.8408765793
 C          2.6745808475        3.2992530083        1.4783301968
 C          3.6455217855        2.4172115409        1.0328215998
 H          4.6111726026        2.3370241559        1.5052778892
 H          2.8769598316        3.9387577190        2.3223705965
 H          0.6838764780        4.0310277358        1.1909903031
 H          0.2257385178        2.5537527316       -0.7413662220
 H          1.9453974868        0.9978151291       -1.5333775799
 H          3.6256810605       -1.2388403865       -1.6660694525
 H          4.0307360779       -0.5818184940        1.8650892198
 H          2.1876561813       -0.9207383462        3.4956309111
 H         -0.0009298959       -1.7576491751        2.7213027515
 C         -0.7658935820       -2.3810696830        0.2301113712
 H         -1.2648425366       -2.9086402115        1.0535203097
 C         -0.7781288567       -3.2670804084       -0.9970251373
 C         -0.3229313633       -4.6899410530       -0.8764308932
 C         -1.7744261283       -4.3824550922       -1.0856257383
 H         -2.2158056842       -4.6033074889       -2.0460571559
 H         -2.4506205830       -4.5168095347       -0.2541213550
 H         -0.0119079831       -5.0307839407        0.0995053158
 H          0.2339205447       -5.1258488350       -1.6918313774
 H         -0.5506097123       -2.7384121560       -1.9146645339
 O         -2.9352711003       -1.5930418407        1.8777909050
