  62
        -98.93594187
 C          1.4188710000        1.6142634622        0.3045792760
 C          1.7422375323        0.4334537118        1.0234998129
 C          2.9674309809       -0.2736536821        0.6177560204
 C          3.6915978471        0.2167641934       -0.4045847117
 C          4.9458097075       -0.3905073744       -0.9668347779
 C          4.6116574199       -1.6208370060       -1.8330170076
 C          5.1420954025       -2.9405019546       -1.2728425743
 H          4.6739094611       -3.7499794413       -1.8369852534
 H          6.2181660562       -2.9947950788       -1.4506777940
 C          4.8992960320       -3.1670605829        0.2219118822
 H          5.0948021824       -4.2231013090        0.4198124767
 H          5.6287821091       -2.6020055222        0.8039084651
 C          3.4908034422       -2.8226170592        0.7231707290
 H          2.7775108334       -2.8648438666       -0.0994938480
 H          3.1983356019       -3.5878049909        1.4455313639
 C          3.3719467992       -1.4661120712        1.4420245736
 H          4.3143066477       -1.2454636571        1.9522300704
 H          2.5967933280       -1.5433816146        2.2104913767
 H          3.5270778439       -1.6785770935       -1.9451213233
 H          5.0221751454       -1.4836856951       -2.8345276586
 H          5.4317343307        0.3772468065       -1.5695061666
 H          5.6138415477       -0.6658711666       -0.1534133564
 O          3.3223271614        1.3202412756       -1.1019746032
 C          2.1918691560        2.0535767669       -0.7701564364
 O          2.0140423602        3.0448174541       -1.5038338387
 O          1.0459672084        0.0052628294        1.9818861791
 C          0.1949777016        2.3834420050        0.7751418797
 C         -1.0085507285        2.0623496040       -0.0772954494
 C         -1.0886276531        2.4602793880       -1.4077815077
 C         -2.1946603148        2.1356642609       -2.1728949734
 C         -3.2423459171        1.4111598634       -1.6306714837
 C         -3.1676219396        1.0030393425       -0.3066408617
 C         -2.0579831790        1.3308639096        0.4614968463
 H         -1.9993194844        0.9961517680        1.4887215955
 N         -4.2236600709        0.2316668415        0.2327655196
 S         -4.2981576747       -1.3482061690       -0.3251784231
 O         -4.4455499015       -1.3255909553       -1.7571077549
 O         -5.3578260217       -1.9835432089        0.4231201703
 C         -2.7233256585       -2.0477400729        0.1312348040
 C         -1.6132013794       -1.7459510269       -0.6326691694
 C         -0.3746002107       -2.2084619218       -0.2198539196
 C         -0.2669388123       -2.9599711329        0.9391631304
 C         -1.3915009915       -3.2553770905        1.6934582447
 C         -2.6323432169       -2.7886935694        1.2925042345
 H         -3.5326130362       -2.9899380999        1.8510138937
 H         -1.3011929360       -3.8385675189        2.5957462375
 H          0.7012669563       -3.3085799591        1.2590388232
 H          0.5040993627       -1.9643206131       -0.7967204747
 H         -1.7309017153       -1.1611583922       -1.5311725949
 H         -4.2233062703        0.2146946272        1.2439089974
 H         -4.1024361672        1.1348319915       -2.2182912829
 H         -2.2417581383        2.4504318163       -3.2045684874
 H         -0.2661805855        3.0075375309       -1.8418762004
 H         -0.0051733951        2.0038079202        1.7861736779
 C          0.4209983098        3.8798414255        0.8649237678
 C         -0.4728262402        4.6955327957        1.7483390478
 C          0.9564333998        4.4644266514        2.1358331493
 H          1.6509617414        5.2883830260        2.0702022445
 H          1.1608274198        3.7865525205        2.9518686548
 H         -0.7638030759        5.6804386488        1.4171082415
 H         -1.2387298871        4.1750609936        2.3033781753
 H          0.7540056700        4.3251219982       -0.0628715217
