  62
        -98.93956109
 C         -2.2787523937       -0.8948381888        0.6407203131
 C         -3.4235578660       -0.8930598969       -0.1938716784
 C         -4.4346336540        0.1341198267        0.1028163869
 C         -4.2285625895        1.0004689508        1.1100685583
 C         -5.1467431013        2.1301292379        1.4749499015
 C         -4.7681104317        3.4186471754        0.7313528199
 C         -4.5728843929        3.2302169012       -0.7731786625
 H         -4.3400885614        4.2103138512       -1.1952728870
 H         -3.7008905315        2.5936168750       -0.9417262387
 C         -5.7853639768        2.6340049980       -1.5018216903
 H         -5.9542022944        3.1999126702       -2.4203358055
 H         -6.6781365171        2.7431148953       -0.8851026192
 C         -5.6240915792        1.1673182470       -1.9050865947
 H         -6.4328909469        0.9137240976       -2.5954326075
 H         -4.6813758623        1.0366745617       -2.4422386079
 C         -5.6681656336        0.1521014925       -0.7563045452
 H         -6.5578502090        0.3232216321       -0.1472712622
 H         -5.7394624068       -0.8458754358       -1.1980935405
 H         -3.8341468886        3.7989513746        1.1520449967
 H         -5.5482621218        4.1611162643        0.9090491677
 H         -6.1709861445        1.8490603825        1.2376297112
 H         -5.0663534921        2.3042004936        2.5492697448
 O         -3.1193036373        0.9689577789        1.8931823353
 C         -2.1273414644        0.0282467547        1.6805215829
 O         -1.1738284901        0.1063977527        2.4832270297
 H          1.4335202479       -1.1024185685        0.7171233874
 C          1.1063291517       -1.1057845062       -0.3120839765
 C         -0.1967243374       -1.4690317519       -0.6220601452
 C         -0.6018041835       -1.4458557428       -1.9527096147
 C          0.2815666435       -1.0597022391       -2.9437793390
 C          1.5786175538       -0.6934834902       -2.6312183133
 C          1.9958586257       -0.7200934804       -1.3052278176
 N          3.3247635754       -0.4013350005       -0.9744359396
 S          3.6603216859        0.3697565839        0.4887141723
 O          3.5856408414       -0.5990081937        1.5529711243
 O          2.8428455148        1.5548113441        0.6279956370
 C          5.3644583152        0.8173441192        0.2123970852
 C          6.3263176607       -0.1701595866        0.3156062969
 C          7.6512449783        0.1574127118        0.0765614736
 C          7.9911687428        1.4596264143       -0.2596290293
 C          7.0155667060        2.4401602073       -0.3571118035
 C          5.6878472686        2.1187311060       -0.1208163084
 H          4.8962930227        2.8486756272       -0.1776614276
 H          7.2829056237        3.4521706548       -0.6152849869
 H          9.0233318799        1.7124175163       -0.4439709969
 H          8.4127239863       -0.6017160077        0.1541348624
 H          6.0155524761       -1.1650034417        0.5887000134
 H          3.8149245951        0.0468655491       -1.7372570826
 H          2.2657152047       -0.3922262270       -3.4074902045
 H         -0.0450547454       -1.0395224200       -3.9726544270
 H         -1.6172905634       -1.7160427925       -2.1973412421
 C         -1.1357859737       -1.8863882196        0.4850719662
 H         -0.5730998949       -1.8352780254        1.4278151893
 C         -1.6033907370       -3.3157645003        0.2869545977
 C         -0.6561029134       -4.4325571065        0.6010166538
 C         -1.8391656429       -4.1808061480        1.4862438442
 H         -2.6613548738       -4.8800879046        1.4630730463
 H         -1.6646085918       -3.7437771593        2.4592259952
 H         -0.6637188465       -5.3074483836       -0.0305571144
 H          0.3218682622       -4.1663512665        0.9744303372
 H         -2.2710630461       -3.4394135677       -0.5548356999
 O         -3.6188850124       -1.6978923062       -1.1422889162
