  62
        -98.93841394
 C         -1.9100691052       -1.0460853830       -0.2175931466
 C         -2.4075169728        0.1231025922       -0.8369967420
 C         -3.8691607431        0.3154489658       -0.7853458815
 C         -4.6317214267       -0.6156122533       -0.1862306916
 C         -6.1212876292       -0.5873625110        0.0181845872
 C         -6.4693584486        0.0089093848        1.3926603046
 C         -6.6031397103        1.5310007580        1.4196278470
 H         -7.5163703227        1.8199423050        0.8951827000
 H         -6.7175521226        1.8287701112        2.4644439620
 C         -5.4276863471        2.3031102057        0.8144970481
 H         -4.4858350999        1.8555633175        1.1373094228
 H         -5.4546182181        3.3194840223        1.2122926986
 C         -5.4748356187        2.3695860278       -0.7193137483
 H         -5.3644540900        3.4076954009       -1.0396833491
 H         -6.4577025322        2.0443375301       -1.0600339458
 C         -4.3850016545        1.5656737635       -1.4440203786
 H         -4.7381990678        1.3109846728       -2.4490447235
 H         -3.4972911389        2.1926206577       -1.5765312932
 H         -7.4149694372       -0.4192941146        1.7311866323
 H         -5.6969078610       -0.3056351022        2.0990753540
 H         -6.6106265276       -0.0419952489       -0.7831856027
 H         -6.4581611426       -1.6258294310       -0.0056194939
 O         -4.1094511304       -1.7348386489        0.3875349215
 C         -2.7487610742       -1.9763486200        0.3950127083
 O         -2.4125783020       -3.0311295032        0.9703003492
 O         -1.6705664600        0.9738644894       -1.4016281136
 C         -0.4185377795       -1.3310473452       -0.2181458398
 C          0.3284054471       -0.1733146339        0.3973440971
 C         -0.0743909422        0.2907292969        1.6478405665
 C          0.5614725507        1.3615530861        2.2435962452
 C          1.6243493188        1.9848014968        1.6125222095
 C          2.0411627545        1.5248551694        0.3701554106
 C          1.3988164079        0.4467708338       -0.2264197718
 H          1.7341114842        0.1257010641       -1.1976960750
 N          3.1075199624        2.1480947346       -0.2978268221
 S          4.2965972532        1.2323209466       -1.0322901009
 O          5.3917220786        2.1557170901       -1.2315492486
 O          3.7827909173        0.5895725175       -2.2139290179
 C          4.7392115811        0.0192993549        0.1974561086
 C          5.5458927387        0.4187862176        1.2454520339
 C          5.8467940612       -0.4914772873        2.2450686018
 C          5.3310973749       -1.7774772266        2.1846221738
 C          4.5245532209       -2.1630686150        1.1253522101
 C          4.2231195538       -1.2578104322        0.1198509044
 H          3.6038361999       -1.5216982882       -0.7212903355
 H          4.1265588677       -3.1643189216        1.0786137751
 H          5.5610665970       -2.4849909600        2.9656093883
 H          6.4783657405       -0.1968879841        3.0676211309
 H          5.9355597825        1.4238522696        1.2496201628
 H          3.5113732329        2.9283477520        0.1993191220
 H          2.1173185174        2.8281077062        2.0717801630
 H          0.2298915050        1.7150605563        3.2083259051
 H         -0.9064428540       -0.1955581295        2.1394889657
 H         -0.2797228654       -2.2116659452        0.4261127963
 C          0.0406769339       -1.6775709064       -1.6188255450
 C          1.1810910435       -2.6264628208       -1.8264580999
 C         -0.2185686609       -3.0548083944       -2.1482794782
 H         -0.5030766711       -3.1637891692       -3.1840847687
 H         -0.7041263144       -3.7564119636       -1.4853411908
 H          1.8654555175       -2.4399074963       -2.6412362026
 H          1.6403700378       -3.0514671446       -0.9465142117
 H         -0.0701475402       -0.8518706786       -2.3129556164
