  62
        -98.94455649
 C         -2.6110054851       -1.2410576826        0.1337449612
 C         -2.6456634740       -0.2926344795       -0.9170070857
 C         -3.4752476299        0.8991223929       -0.6817427916
 C         -4.1451098130        1.0272393996        0.4771541504
 C         -4.9732278171        2.2161382070        0.8671575046
 C         -4.1346592188        3.2509796554        1.6302885630
 C         -2.8126622737        3.6039879468        0.9477568100
 H         -2.1571037007        2.7292275200        0.9544606582
 H         -2.3254825277        4.3683633700        1.5572737349
 C         -2.9570731375        4.1164561479       -0.4920264727
 H         -2.3106335200        4.9874828179       -0.6187538735
 H         -3.9824667640        4.4438014838       -0.6682979060
 C         -2.5554286809        3.1063809898       -1.5686443749
 H         -1.5629528289        2.7060555871       -1.3409428667
 H         -2.4805385584        3.6375991724       -2.5215679488
 C         -3.5207597679        1.9315258786       -1.7729959485
 H         -3.2244490497        1.4140670577       -2.6901008228
 H         -4.5363757515        2.3097101824       -1.9048513808
 H         -3.9097602219        2.8518964798        2.6219544198
 H         -4.7328045171        4.1553930992        1.7548947749
 H         -5.3984219644        2.6661003958       -0.0277257580
 H         -5.7840288682        1.8730963965        1.5119166843
 O         -4.1030456318        0.0902330446        1.4570866928
 C         -3.3301847718       -1.0482626534        1.3185766526
 O         -3.3710832248       -1.8134913425        2.3022717184
 H         -0.0184825927       -1.1781276020       -1.4951207912
 C          0.4275043468       -1.4705104097       -0.5562169205
 C         -0.3316127474       -2.1740857450        0.3681867880
 C          0.2475900959       -2.5059580206        1.5877097113
 C          1.5523497693       -2.1416696795        1.8706742085
 C          2.3023932806       -1.4331735351        0.9487879641
 C          1.7283550172       -1.0875705576       -0.2672559427
 N          2.4746528317       -0.3404297304       -1.2015304842
 S          3.0422699219        1.1488271719       -0.6615864293
 O          2.2022663381        1.6878540564        0.3842541534
 O          3.1926264471        1.9602397422       -1.8499406440
 C          4.6576214729        0.7680265718       -0.0157189131
 C          5.5684331523        0.1640584585       -0.8605434849
 C          6.8313846619       -0.1377949805       -0.3769691272
 C          7.1614077485        0.1704297694        0.9345917235
 C          6.2370358428        0.7801655367        1.7688925049
 C          4.9711936090        1.0836179971        1.2916383235
 H          4.2172262156        1.5511691824        1.9048163575
 H          6.4952647609        1.0193599687        2.7880378967
 H          8.1448962832       -0.0658435774        1.3090147500
 H          7.5529772447       -0.6118629404       -1.0225931900
 H          5.2721090231       -0.0545778179       -1.8727924118
 H          1.9856770073       -0.2182084336       -2.0781120950
 H          3.3157005444       -1.1371657165        1.1668763951
 H          1.9882868854       -2.4072138246        2.8217371398
 H         -0.3424576922       -3.0341729445        2.3228849934
 C         -1.7751158026       -2.5131664362        0.0819806605
 H         -2.1416868413       -3.1400614309        0.9054115139
 C         -1.9377636645       -3.2826629372       -1.2135071409
 C         -1.5681346204       -4.7340631477       -1.2445803987
 C         -3.0083337352       -4.3254293612       -1.3133292637
 H         -3.5341113444       -4.4345737949       -2.2499865237
 H         -3.6283564742       -4.4897641501       -0.4438851968
 H         -1.2116016894       -5.1780670833       -0.3274982083
 H         -1.1022980841       -5.1275570701       -2.1348805062
 H         -1.7409256091       -2.6922783636       -2.0981604109
 O         -2.0273528127       -0.4100855275       -2.0099672635
