  62
        -98.93937212
 C         -2.0687433278       -0.8018761029       -0.0587113182
 C         -2.6974806085        0.2396446258        0.6637810766
 C         -2.7045889242        1.5606673984        0.0234232901
 C         -2.1304524024        1.7083357622       -1.1838921030
 C         -2.0495272594        2.9979294007       -1.9475446521
 C         -0.7466509968        3.7523068360       -1.6527640846
 C         -0.4413613761        3.9082879483       -0.1627850424
 H         -0.2079436446        2.9312729428        0.2671493349
 H          0.4668120986        4.5105472854       -0.0787314476
 C         -1.5634614396        4.5656850899        0.6531133692
 H         -1.1162960945        5.2960492289        1.3308967049
 H         -2.2391935587        5.1083022544       -0.0098122864
 C         -2.3685610595        3.5943004069        1.5189715519
 H         -2.9447375495        4.1782222231        2.2423484398
 H         -1.6791845041        2.9590394683        2.0823237635
 C         -3.3558910838        2.6902083291        0.7692777572
 H         -4.0098317246        2.2225493231        1.5114780091
 H         -3.9729555202        3.2935898624        0.0995877332
 H         -0.8098402074        4.7387875778       -2.1169084529
 H          0.0824817624        3.2104247212       -2.1138145880
 H         -2.9059067791        3.6179527614       -1.6891044718
 H         -2.0891698303        2.7656863846       -3.0134481022
 O         -1.5332146276        0.6873505027       -1.8468852110
 C         -1.4637843521       -0.5860659172       -1.2960772306
 O         -0.8486304617       -1.4080546820       -1.9991043449
 O         -3.2369129981        0.0664514654        1.7916129415
 C         -1.9825605451       -2.1847398496        0.5793338672
 C         -0.5231177738       -2.5701166964        0.6165116569
 C          0.1062320209       -3.6382113069       -0.0086784466
 C          1.4796145080       -3.8028346608        0.0850285068
 C          2.2657399530       -2.8984687498        0.7716826815
 C          1.6508929589       -1.8218459814        1.4004594605
 C          0.2757515209       -1.6885454117        1.3442239745
 H         -0.1827426850       -0.8446509987        1.8398053238
 N          2.3981944582       -0.8387540841        2.0856231877
 S          2.3389071101        0.7146207307        1.4576159393
 O          3.2503689190        1.4868465741        2.2737254343
 O          0.9756301572        1.1716429777        1.4072551638
 C          3.0090269197        0.5481693622       -0.1863281062
 C          4.3431903376        0.8358791340       -0.4019647412
 C          4.8775083307        0.6333149021       -1.6640441099
 C          4.0757547036        0.1378039379       -2.6819333224
 C          2.7398890879       -0.1497119702       -2.4482910566
 C          2.1985341297        0.0563022584       -1.1890941573
 H          1.1623534302       -0.1608453123       -0.9837343540
 H          2.1047018286       -0.5392392791       -3.2280562431
 H          4.4923476094       -0.0257883798       -3.6632830225
 H          5.9155665417        0.8578947973       -1.8493371199
 H          4.9267743546        1.2205011992        0.4189119315
 H          3.3644605514       -1.0964493825        2.2357863428
 H          3.3379970592       -3.0153579190        0.8170199114
 H          1.9443347816       -4.6417602495       -0.4102809548
 H         -0.4499246101       -4.3445673669       -0.5969680267
 H         -2.2876560041       -2.0202099032        1.6268813454
 C         -3.0514410659       -3.0851487670       -0.0185064602
 C         -2.9367627845       -3.8371747915       -1.3075150164
 C         -3.0285463317       -4.5839346160       -0.0087295052
 H         -3.9538514805       -5.0955885599        0.2120098709
 H         -2.1564528171       -5.0844907139        0.3782712732
 H         -3.7989903559       -3.8431476806       -1.9590762792
 H         -2.0026217325       -3.7854463511       -1.8419681713
 H         -4.0238503515       -2.6330013918        0.1675911953
