  62
        -98.93661190
 C         -2.5469977102       -0.7599572402        0.0623546202
 C         -2.9541475900        0.2752395095        0.9315446306
 C         -3.0969663399        1.6228480098        0.3472412211
 C         -2.8122842799        1.7938955503       -0.9575575788
 C         -2.8219844797        3.0723770006       -1.7525720883
 C         -1.5964214496        3.9523765603       -1.4602477780
 C         -1.2543623396        4.1061393197        0.0192791721
 H         -1.0583750597        3.1186020095        0.4419163117
 H         -0.3205771395        4.6710365096        0.0839503123
 C         -2.3023073495        4.8295930795        0.8622002224
 H         -1.8816924194        4.9533995090        1.8633415925
 H         -2.4684589693        5.8256745197        0.4463936628
 C         -3.6551736395        4.1272628496        1.0003282722
 H         -4.2633697595        4.2664560600        0.1107487422
 H         -4.1905965595        4.6125474693        1.8214744824
 C         -3.5713877197        2.6454970295        1.3522778116
 H         -2.9323408697        2.5214810090        2.2340316315
 H         -4.5652599498        2.3058601495        1.6680452414
 H         -0.7306956097        3.5003274604       -1.9519413482
 H         -1.7640974195        4.9356279305       -1.9033965776
 H         -2.7992456098        2.7857570310       -2.8063191584
 H         -3.7433670397        3.6191736207       -1.5760396780
 O         -2.4102784600        0.7644176306       -1.7579305592
 C         -2.2573260002       -0.5229948996       -1.2810010498
 O         -1.8747605503       -1.3496666093       -2.1314946201
 H         -0.2026389202       -0.7126535109        1.1884442801
 C          0.0818142997       -1.6632677908        0.7514650397
 C         -0.9106649504       -2.5703772105        0.4000488994
 C         -0.5253422006       -3.7824332903       -0.1562294711
 C          0.8128499594       -4.0579341704       -0.3837885013
 C          1.7931624395       -3.1379921807       -0.0605419509
 C          1.4185903397       -1.9332291108        0.5168263696
 N          2.4185363198       -0.9738643211        0.8301728500
 S          2.9168310599       -0.0702117106       -0.5151026597
 O          2.0444557500        1.0752693396       -0.6794676592
 O          3.0519475998       -0.9537426902       -1.6437171700
 C          4.5268992800        0.4723927390        0.0250768805
 C          5.5842816499       -0.4102376511       -0.0798629399
 C          6.8333728899       -0.0168512215        0.3724429802
 C          7.0025184001        1.2450303983        0.9228726908
 C          5.9315865502        2.1200314984        1.0214601511
 C          4.6794080901        1.7318410987        0.5707273110
 H          3.8209219002        2.3824301588        0.6193950413
 H          6.0659056103        3.1014342682        1.4472184415
 H          7.9754297801        1.5495042180        1.2750691909
 H          7.6688027698       -0.6938273515        0.2952742300
 H          5.4058911997       -1.3764678309       -0.5216736503
 H          2.0773309799       -0.3076503513        1.5125963902
 H          2.8340784095       -3.3286272007       -0.2623663310
 H          1.0933334093       -4.9996059302       -0.8307191217
 H         -1.2751633707       -4.5061892701       -0.4311576414
 C         -2.3464681503       -2.1596377904        0.6158029396
 H         -2.5276624403       -2.0775835408        1.6979862896
 C         -3.3536287305       -3.1208232200        0.0225068592
 C         -3.7939184406       -4.3256137103        0.7977577587
 C         -4.7325518805       -3.1735712101        0.6066716492
 H         -5.5710386505       -3.2933078797       -0.0627172308
 H         -4.9365062904       -2.5313576004        1.4509996795
 H         -3.9917182207       -5.2404270200        0.2600666384
 H         -3.3657389206       -4.4721745907        1.7777021887
 H         -3.2620516905       -3.2051330196       -1.0546919608
 O         -3.1775218900        0.0906213991        2.1601055705
