  62
        -98.93356616
 C         -2.0377067338       -0.9569624462       -0.3766079547
 C         -2.3929189557        0.2375879492        0.2971996372
 C         -3.7708853886        0.2879662691        0.8095313480
 C         -4.5915381093       -0.7646737060        0.6471009269
 C         -6.0127094374       -0.8664631950        1.1308172421
 C         -7.0410994200       -0.2336579901        0.1834404153
 C         -7.0416566339        1.2952140759        0.1517275914
 H         -7.9448398548        1.6043185350       -0.3782137972
 H         -7.1145327670        1.6788274768        1.1698572596
 C         -5.8234955212        1.9147557598       -0.5475487653
 H         -6.1553320224        2.7033124278       -1.2268355505
 H         -5.3275524621        1.1560167361       -1.1573494096
 C         -4.7961225507        2.5359222626        0.3989735343
 H         -3.9608226187        2.9092702792       -0.1991837123
 H         -5.2436920925        3.3858691360        0.9190769422
 C         -4.2322342427        1.5649099272        1.4445663386
 H         -3.3644277561        2.0338353223        1.9149877917
 H         -4.9796014773        1.3618147616        2.2112688245
 H         -8.0298107771       -0.5692435008        0.5047802028
 H         -6.8709034633       -0.6187785096       -0.8246065569
 H         -6.2353502171       -1.9320704045        1.2179188154
 H         -6.0975004985       -0.4116284686        2.1180662777
 O         -4.2001803956       -1.9053584854        0.0185221916
 C         -2.9310180497       -2.0204274495       -0.5207595609
 O         -2.7137113641       -3.1096946382       -1.0906115614
 H          1.0822887354        1.0927222112       -0.5946195919
 C          1.1749064986        0.2925777687        0.1153015582
 C          0.3940780734       -0.8493662255        0.0419888915
 C          0.5490627114       -1.8108933092        1.0433780764
 C          1.4480703071       -1.6401923098        2.0763196880
 C          2.2481430553       -0.5114289930        2.1224742570
 C          2.1057061433        0.4517262136        1.1347260275
 N          2.9239673452        1.6038759636        1.1200458141
 S          4.0099155855        1.7011194876       -0.1507079386
 O          4.8822898995        2.8091940454        0.1666626643
 O          3.2956453778        1.7763788925       -1.3972737226
 C          4.9175001688        0.1667695861       -0.0597289002
 C          4.3739932136       -0.9663599868       -0.6322819336
 C          5.0376132313       -2.1741327216       -0.4851562565
 C          6.2254782622       -2.2283956460        0.2278551039
 C          6.7599143696       -1.0812002233        0.7946165161
 C          6.0978744211        0.1281167826        0.6563870455
 H          6.4774513030        1.0452441157        1.0773984214
 H          7.6855599523       -1.1262440028        1.3455243344
 H          6.7374269497       -3.1709795396        0.3406035268
 H          4.6207237383       -3.0660281528       -0.9247251340
 H          3.4497586051       -0.8881003984       -1.1819620476
 H          3.4155301713        1.7598440248        1.9893213541
 H          2.9649084369       -0.3736696064        2.9182140586
 H          1.5373934200       -2.3950203585        2.8425587062
 H         -0.0681089823       -2.6986867228        1.0049474254
 C         -0.6566040084       -1.1478232860       -0.9967125299
 H         -0.5908264594       -2.2295773513       -1.1965124013
 C         -0.6324825264       -0.4902580108       -2.3702514425
 C         -0.6254385456        0.9842832111       -2.6322746999
 C          0.5464024799        0.1432941832       -3.0455882181
 H          0.6780851682       -0.0504683360       -4.1004930415
 H          1.4759677632        0.2624356747       -2.5127439015
 H         -0.5272646313        1.6511076386       -1.7905104584
 H         -1.2848062054        1.3634981104       -3.4007767317
 H         -1.2846762055       -1.0596178446       -3.0307782077
 O         -1.6189408019        1.2111696634        0.4753925012
