  62
        -98.94593932
 C         -2.1144701482       -1.4930949410        0.0013148348
 C         -1.8336927843       -0.3727014165       -0.8175530806
 C         -2.8953179082        0.6420461622       -0.8924831881
 C         -4.0490378153        0.4424527798       -0.2297788860
 C         -5.1893306312        1.4169536218       -0.1802624771
 C         -5.0581434822        2.3644857864        1.0205573922
 C         -3.6762343397        3.0042800856        1.1555093473
 H         -2.9438805291        2.2267979221        1.3851782284
 H         -3.7125999547        3.6751422256        2.0165671369
 C         -3.2141467147        3.7852606184       -0.0825150446
 H         -2.7866348185        4.7354150101        0.2441294908
 H         -4.0717897797        4.0173476351       -0.7150569196
 C         -2.1441346793        3.0765594867       -0.9151811790
 H         -1.3296130052        2.7514328720       -0.2632459720
 H         -1.7345163166        3.8001964204       -1.6249228632
 C         -2.6242344194        1.8644494212       -1.7233376767
 H         -1.8242063563        1.5827288289       -2.4140633257
 H         -3.5035310174        2.1359131822       -2.3109903733
 H         -5.2639234589        1.7983216235        1.9320505956
 H         -5.8157767166        3.1449159706        0.9282037761
 H         -5.2142027588        1.9879708537       -1.1063143162
 H         -6.1194310981        0.8536722427       -0.0869584685
 O         -4.2924343701       -0.6630170716        0.5204251104
 C         -3.3280031308       -1.6453048599        0.6719500913
 O         -3.6643726681       -2.5889307765        1.4159333986
 H          1.4823279148       -2.4815419352       -0.8815234448
 C          1.4000307086       -1.9817765033        0.0704844059
 C          0.1880292115       -1.9581744720        0.7392869434
 C          0.1159173237       -1.2960808327        1.9628014788
 C          1.2277963067       -0.6772331524        2.5000916451
 C          2.4360222942       -0.6944058554        1.8241668804
 C          2.5156352693       -1.3447646242        0.6008559355
 N          3.7303262340       -1.3493961701       -0.1029390398
 S          4.6282322267        0.0606328063       -0.1452406387
 O          5.3856037403       -0.0146697944       -1.3754397773
 O          5.4113924039        0.1692795342        1.0614713948
 C          3.4530492040        1.4022842337       -0.2181283498
 C          3.5555148187        2.4401342705        0.6861448280
 C          2.6450410883        3.4821570033        0.6178007538
 C          1.6497767179        3.4664330465       -0.3470581646
 C          1.5607251199        2.4171521611       -1.2485606936
 C          2.4705828901        1.3750264750       -1.1874516864
 H          2.4089744123        0.5484054704       -1.8761730935
 H          0.7780988023        2.3904027746       -1.9890592279
 H          0.9373565950        4.2749610099       -0.3972682361
 H          2.7116915086        4.2995321292        1.3178032705
 H          4.3407224807        2.4083762811        1.4242228406
 H          3.6764817370       -1.7771115539       -1.0156091920
 H          3.3141549521       -0.2173470524        2.2281913999
 H          1.1556589084       -0.1721119172        3.4513624243
 H         -0.8316875355       -1.2712368636        2.4842425982
 C         -1.0686982915       -2.5801323088        0.1818491825
 H         -1.4730496456       -3.2713724263        0.9345745715
 C         -0.8650440615       -3.3369463744       -1.1135844858
 C         -0.3062518246       -4.7272219112       -1.0898340051
 C         -1.7516416574       -4.5052600934       -1.4176287770
 H         -2.0789989209       -4.6529790780       -2.4359167147
 H         -2.4938312694       -4.7711439461       -0.6790343888
 H         -0.0637503975       -5.1514986087       -0.1272774240
 H          0.3571934196       -5.0327328711       -1.8850404044
 H         -0.5967304668       -2.6904051961       -1.9411550898
 O         -0.7590900548       -0.2249202063       -1.4543536819
