  62
        -98.94041936
 C         -2.0530696056       -1.0545345427        0.4851720820
 C         -2.7358984623       -0.0970912380        1.2791012121
 C         -4.1547607327        0.1097782904        0.9749675433
 C         -4.7358477396       -0.6086114807       -0.0026900992
 C         -6.1786424924       -0.5311711518       -0.4222508740
 C         -6.4800827892        0.6036725414       -1.4107001340
 C         -6.4621107046        2.0105112695       -0.8114525149
 H         -6.9017165395        2.6803079423       -1.5532379505
 H         -7.1027548999        2.0369998868        0.0706118101
 C         -5.0625656608        2.5273326170       -0.4493808740
 H         -4.3070522974        1.9234282717       -0.9575903290
 H         -4.9473844630        3.5516488855       -0.8111537751
 C         -4.7583347387        2.5399847557        1.0487788124
 H         -5.4222513886        3.2467424821        1.5517258288
 H         -3.7307690464        2.8868257369        1.1860836937
 C         -4.8922204681        1.1726275338        1.7316888442
 H         -4.4470761908        1.2416164522        2.7273661099
 H         -5.9437211512        0.9056794436        1.8361800411
 H         -5.7638735084        0.5496275629       -2.2338430231
 H         -7.4749633640        0.4207796970       -1.8232905533
 H         -6.4128861048       -1.4811983194       -0.9073717812
 H         -6.8118222106       -0.4255507410        0.4591732874
 O         -4.0548510624       -1.5299858701       -0.7305093814
 C         -2.6969056803       -1.7602756834       -0.5323432651
 O         -2.2177368864       -2.6038930032       -1.3107535504
 H          1.2687363955        0.5231112701        1.6412715122
 C          1.1773936740        0.5242336294        0.5634856348
 C          0.2600804592       -0.3201543447       -0.0440397691
 C          0.1429668688       -0.2921872968       -1.4304773140
 C          0.9248842434        0.5643374969       -2.1838883884
 C          1.8390642934        1.4061797418       -1.5738371302
 C          1.9637205936        1.3849438839       -0.1917461965
 N          2.9172318151        2.2202387597        0.4272203956
 S          4.5117609800        1.9361615148       -0.0146332335
 O          5.3151163318        2.5230700068        1.0331009546
 O          4.7311877932        2.4384592122       -1.3463567339
 C          4.6447502216        0.1582604864        0.0074330890
 C          4.4516883628       -0.5543369931       -1.1589089357
 C          4.4480680844       -1.9390006718       -1.1035703645
 C          4.6352704298       -2.5833668624        0.1091508805
 C          4.8358626817       -1.8530860868        1.2707769977
 C          4.8337907496       -0.4685711758        1.2233501965
 H          4.9875179988        0.1353558304        2.1035338395
 H          4.9837263390       -2.3580350057        2.2119380161
 H          4.6206101594       -3.6606366964        0.1500597488
 H          4.2920560242       -2.5102956634       -2.0044254091
 H          4.3123772773       -0.0169823372       -2.0823491180
 H          2.8391178146        2.2332527514        1.4345703248
 H          2.4625379601        2.0737383772       -2.1465329884
 H          0.8219203852        0.5771455653       -3.2584850231
 H         -0.5643401578       -0.9537355306       -1.9076876016
 C         -0.5792440602       -1.2531080460        0.7902427759
 H         -0.4725457118       -0.9399619613        1.8409362712
 C         -0.1224039830       -2.7029323282        0.6986084297
 C          0.8909572049       -3.1928083974       -0.2883622888
 C          1.2569047406       -3.0736581452        1.1582854429
 H          1.3844971434       -3.9733532526        1.7403690382
 H          1.9186507244       -2.2668053340        1.4366059473
 H          0.7385355001       -4.1745282861       -0.7094091065
 H          1.3192159587       -2.4840855111       -0.9793544129
 H         -0.9202323029       -3.3947952750        0.9465719487
 O         -2.1808068704        0.5479957008        2.2093500458
