  62
        -98.93824459
 C         -1.3996118267       -1.0769986014       -0.4755581964
 C         -2.5079860962       -1.1683927165        0.4015274439
 C         -3.4366215329       -0.0266139228        0.4418818479
 C         -3.1908170926        1.0451581972       -0.3342266056
 C         -3.9108800733        2.3713899194       -0.4652203375
 C         -5.3023010948        2.5663878257        0.1308259454
 C         -6.4080686348        1.7652009266       -0.5562093406
 H         -7.3295563266        1.8942586843        0.0154936799
 H         -6.5719621049        2.1853070253       -1.5517290182
 C         -6.1320617715        0.2734470702       -0.7258411929
 H         -5.2598267665        0.1330617330       -1.3674249841
 H         -6.9879167560       -0.1681460986       -1.2434571323
 C         -5.9227667355       -0.5040493935        0.5718998966
 H         -6.7729089479       -0.3436925545        1.2377477504
 H         -5.8923997600       -1.5669487267        0.3178162499
 C         -4.6308620425       -0.1763797743        1.3401659706
 H         -4.7542292655        0.7054611064        1.9648659661
 H         -4.4091147768       -1.0178534261        2.0033029103
 H         -5.5433662064        3.6269567031        0.0177071628
 H         -5.2854775326        2.3606836918        1.1971281043
 H         -3.2348395317        3.1134434603       -0.0246726887
 H         -3.9466234267        2.5884391836       -1.5378010321
 O         -2.1107015836        1.0923553250       -1.1639226064
 C         -1.1857964698        0.0603835266       -1.2534597029
 O         -0.2658934518        0.2914210744       -2.0587466916
 H          0.8185020190        0.0134573925        0.3219573034
 C          1.1490601265       -0.8463419927        0.8804575384
 C          0.5990128584       -2.0917046177        0.6137831921
 C          1.0153834046       -3.1818828561        1.3695280317
 C          1.9674743217       -3.0245901140        2.3611952552
 C          2.5133337161       -1.7815703701        2.6237562757
 C          2.0897975285       -0.6795181775        1.8863963772
 N          2.5837082723        0.5936086333        2.1793222383
 S          2.5404933220        1.9037004869        1.1511478843
 O          3.2840685031        2.9161833121        1.8719906847
 O          1.1805946794        2.2399467454        0.8126850463
 C          3.4845951124        1.4171069493       -0.2809542785
 C          2.8711420269        1.1126317516       -1.4779292179
 C          3.6640688911        0.7370254646       -2.5531816628
 C          5.0403391901        0.6653628838       -2.4146117094
 C          5.6407681757        0.9735399946       -1.2024446381
 C          4.8577251062        1.3541717992       -0.1265167113
 H          5.2849200027        1.6240611755        0.8255339111
 H          6.7121992606        0.9202219868       -1.0956534779
 H          5.6474910520        0.3705204479       -3.2558854985
 H          3.1895637975        0.5007700746       -3.4920397814
 H          1.7968302518        1.1590136594       -1.5700390020
 H          3.3407881039        0.6360754718        2.8431254447
 H          3.2458532013       -1.6560097368        3.4059747206
 H          2.2835885218       -3.8777808628        2.9417533362
 H          0.5722815721       -4.1506471257        1.1921018359
 C         -0.4377512742       -2.2508983413       -0.4719937309
 H         -1.0551361835       -3.1237270654       -0.2034647278
 C          0.1829565486       -2.5325554126       -1.8328504309
 C          1.6096444255       -2.2232563973       -2.1607054549
 C          1.1728814363       -3.6468993806       -2.0039022539
 H          1.1006207540       -4.2661538754       -2.8850467326
 H          1.4949695211       -4.1721506421       -1.1183020975
 H          2.2240509811       -1.7850565942       -1.3891812367
 H          1.8242465163       -1.8482317997       -3.1489128330
 H         -0.5336756024       -2.3927514806       -2.6356497111
 O         -2.7139671149       -2.1762774733        1.1318908688
