  62
        -98.92974834
 C         -1.3957524304       -1.5105647323        0.0091216257
 C         -2.6106968305       -1.3398551136        0.7221454423
 C         -3.5105449137       -0.2581380313        0.2842961396
 C         -3.1444592962        0.5055482699       -0.7599851176
 C         -3.8694646995        1.6737749054       -1.3784405601
 C         -5.3784525908        1.4976811583       -1.6087983140
 C         -6.2390110874        2.3559919770       -0.6802060752
 H         -5.7659133344        3.3342156332       -0.5721954505
 H         -7.2108814917        2.5153288008       -1.1527107812
 C         -6.4912758248        1.7608352983        0.7041104854
 H         -7.1787769775        0.9168367980        0.6142135218
 H         -6.9920737733        2.5236072343        1.3050637053
 C         -5.2429946986        1.2885318663        1.4526689342
 H         -5.4786138307        1.2794652935        2.5189753903
 H         -4.4244167693        1.9936394880        1.3145630100
 C         -4.7899474038       -0.1270141568        1.0646776199
 H         -4.6226151660       -0.7189458510        1.9698422308
 H         -5.5887084935       -0.6368560740        0.5177263010
 H         -5.5957878480        1.7918976090       -2.6369393462
 H         -5.6486551074        0.4472100770       -1.5110522065
 H         -3.6909585307        2.5596143866       -0.7640281874
 H         -3.3673748823        1.8483383682       -2.3328296857
 O         -1.9695233797        0.3078542890       -1.4181110188
 C         -1.0762799263       -0.6974920133       -1.0780122996
 O         -0.0772075687       -0.7321921227       -1.8189095557
 O         -2.9332948812       -2.0680760414        1.6993225297
 C         -0.4597216583       -2.6038565445        0.5149772431
 C          0.8661064431       -1.9914295497        0.8878817909
 C          1.0558772283       -1.5895992673        2.2094616891
 C          2.2025841712       -0.9229765359        2.5993416992
 C          3.1864493718       -0.6176997415        1.6751458193
 C          3.0061315273       -1.0063957605        0.3556360151
 C          1.8696685483       -1.7068427618       -0.0258428613
 H          1.7563282196       -1.9713588157       -1.0623623787
 N          3.9661486153       -0.6505306070       -0.6109629176
 S          4.4577285847        0.9501135992       -0.6002279587
 O          4.7908193046        1.2629597576       -1.9727775757
 O          5.5335187188        1.1085241261        0.3487883771
 C          3.0521916805        1.9128682925       -0.0598017052
 C          1.8339772427        1.7406012230       -0.6862662370
 C          0.7511157884        2.4925259503       -0.2592316287
 C          0.9017065716        3.4032533302        0.7745375387
 C          2.1336360489        3.5695314826        1.3882627135
 C          3.2189036649        2.8166957613        0.9705381845
 H          4.1918724474        2.9064516071        1.4259018056
 H          2.2496544771        4.2788050843        2.1918539026
 H          0.0538557175        3.9838312620        1.1027422727
 H         -0.2056884412        2.3479354865       -0.7368222615
 H          1.7162495167        1.0198299565       -1.4803042970
 H          3.7060485451       -0.9286247785       -1.5468738795
 H          4.0791810397       -0.0797707577        1.9508209467
 H          2.3269928642       -0.6257470785        3.6292250276
 H          0.2796797851       -1.7932351460        2.9334793717
 H         -0.9287999166       -2.9232487496        1.4579535457
 C         -0.4759099470       -3.8457414192       -0.3690456318
 C          0.0338337046       -3.9283386413       -1.7760718599
 C          0.7425041181       -4.6622880972       -0.6782076630
 H          0.6571261438       -5.7382813075       -0.6468303251
 H          1.6984248312       -4.2885584450       -0.3455899566
 H         -0.5490523316       -4.5046927787       -2.4811078749
 H          0.4823527113       -3.0542290139       -2.2177099694
 H         -1.3876777027       -4.4094818040       -0.1882489357
