  62
        -98.94079624
 C          1.6909355616        0.5643613426        0.1594894633
 C          2.8713744184        1.2003752905        0.6235305429
 C          4.1045699736        0.8920822395       -0.1083014394
 C          4.0655640726        0.0407647622       -1.1488948020
 C          5.2291539889       -0.3466815220       -2.0207909072
 C          6.0882353318       -1.4827060327       -1.4491484515
 C          6.9628187570       -1.0981295690       -0.2551545208
 H          7.6654244524       -1.9184409971       -0.0954964533
 H          7.5479728811       -0.2126768127       -0.5054772647
 C          6.1849323411       -0.8536639473        1.0455055708
 H          5.1854514786       -1.2862673592        0.9581865236
 H          6.6842332167       -1.3671434603        1.8702821291
 C          6.0553572627        0.6176191012        1.4399278653
 H          5.4580811860        0.6762918224        2.3533227075
 H          7.0443881463        1.0266387810        1.6576191624
 C          5.3850437748        1.5003678889        0.3789088111
 H          6.0665633158        1.6702047963       -0.4544208846
 H          5.1433937224        2.4626369640        0.8368325014
 H          5.4313117648       -2.3097616586       -1.1696364317
 H          6.7402363521       -1.8337123789       -2.2524053011
 H          5.8550782645        0.5269764910       -2.2052924060
 H          4.8068299582       -0.6795366989       -2.9715111721
 O          2.9198350464       -0.5713084250       -1.5475969354
 C          1.7114020298       -0.3523350506       -0.8928646076
 O          0.7690480052       -1.0273554321       -1.3469010795
 O          2.8920350340        1.9889094181        1.6052033760
 C          0.3976846467        0.8679960641        0.8943156398
 C         -0.3564303183       -0.4029871449        1.1898200327
 C          0.2296884338       -1.3464327295        2.0298898964
 C         -0.4202654495       -2.5283903537        2.3250763304
 C         -1.6755017983       -2.7866951597        1.8033961660
 C         -2.2743658875       -1.8482943735        0.9708307586
 C         -1.6134834455       -0.6651987560        0.6685577986
 H         -2.0697358295        0.0282475258       -0.0166009042
 N         -3.5705915466       -2.0643437453        0.4922046247
 S         -4.2221834191       -1.2923856520       -0.8317090412
 O         -5.4909725671       -1.9641418544       -1.0270030895
 O         -3.3399434319       -1.2821318769       -1.9740410265
 C         -4.5259517879        0.3708496131       -0.2707336721
 C         -4.9551819483        0.5833933583        1.0243167184
 C         -5.2051137944        1.8812563390        1.4410824476
 C         -5.0287749451        2.9383080196        0.5611631812
 C         -4.6057794282        2.7077242826       -0.7386476639
 C         -4.3529112674        1.4120405195       -1.1610070216
 H         -4.0115365367        1.1854731000       -2.1591608059
 H         -4.4694412181        3.5301749195       -1.4229624291
 H         -5.2206589465        3.9477767333        0.8890941394
 H         -5.5341189540        2.0647682558        2.4512261002
 H         -5.0780611340       -0.2592392891        1.6838165100
 H         -3.9503709035       -2.9868429027        0.6379695494
 H         -2.1863304062       -3.7091004851        2.0338242162
 H          0.0515499968       -3.2567528612        2.9675728633
 H          1.2113841871       -1.1445383619        2.4368916841
 H          0.7274411873        1.2948518625        1.8567656052
 C         -0.4620968718        1.9299461417        0.2249731991
 C          0.1586070669        3.0312471179       -0.5795366251
 C         -0.6652461296        1.9804072736       -1.2583262343
 H         -1.6416298403        2.2536220634       -1.6304129470
 H         -0.1679953540        1.2343659529       -1.8589676401
 H         -0.2505867178        4.0258287768       -0.4879115687
 H          1.2298252486        3.0093646476       -0.7171266154
 H         -1.3143293620        2.2060629127        0.8391922844
