  62
        -98.93982357
 C          2.1974901054        0.7957127618        0.0925819618
 C          2.4763835650       -0.2815297241        0.9667531956
 C          3.1138061972       -1.4530221777        0.3557991679
 C          3.3517811551       -1.4672336503       -0.9686309294
 C          3.9687069247       -2.5994908288       -1.7442664066
 C          5.5032878218       -2.6106726568       -1.7176792954
 C          6.1279713950       -3.0338101695       -0.3875809743
 H          5.6946723690       -3.9825107406       -0.0693385166
 H          7.1898341427       -3.2068173402       -0.5733607937
 C          5.9865849587       -1.9978785739        0.7364242528
 H          5.7313703056       -1.0263362677        0.3068984477
 H          6.9456385769       -1.8798733010        1.2458029947
 C          4.9497163755       -2.3552560137        1.8013913128
 H          4.9076490484       -1.5380551808        2.5260688017
 H          5.2634305576       -3.2579642945        2.3302852372
 C          3.5334017642       -2.5770788917        1.2545603239
 H          3.4791884338       -3.5285420319        0.7260360151
 H          2.8401979660       -2.6043563803        2.0989653367
 H          5.8369396028       -3.3082050653       -2.4893496321
 H          5.8644830757       -1.6163755458       -1.9902359048
 H          3.5904259737       -3.5507858948       -1.3689913114
 H          3.6432163768       -2.4792259679       -2.7797614062
 O          3.0264822347       -0.4284242112       -1.7831113277
 C          2.4582996979        0.7320175937       -1.2766199981
 O          2.2341681030        1.6076968856       -2.1325827621
 O          2.1957805837       -0.2688779401        2.1963901134
 C          1.5562311223        2.0508601230        0.6561050317
 C          0.1960547166        2.2556514462        0.0342886620
 C         -0.2137388414        3.4486504150       -0.5440870294
 C         -1.4781177793        3.5588966142       -1.0980572602
 C         -2.3573433192        2.4925868212       -1.0865471148
 C         -1.9629801777        1.2973307887       -0.4975118942
 C         -0.6989640958        1.1922038601        0.0623434960
 H         -0.3903508175        0.2617294961        0.5240085158
 N         -2.8386937598        0.1909428679       -0.4912207172
 S         -4.4131590620        0.4599465685        0.0636995722
 O         -5.1410289390        1.1795120449       -0.9501475321
 O         -4.3819642332        1.0734782595        1.3737785846
 C         -5.0210964229       -1.2107923299        0.1725699991
 C         -5.4703326934       -1.8275918833       -0.9795379691
 C         -5.9228055454       -3.1352210208       -0.9056547499
 C         -5.9181464288       -3.8003166145        0.3115878178
 C         -5.4652124193       -3.1675372306        1.4593992721
 C         -5.0098145867       -1.8600720605        1.3922305720
 H         -4.6568384627       -1.3267154365        2.2605361322
 H         -5.4653177473       -3.6860232633        2.4047026663
 H         -6.2721913410       -4.8176039032        0.3669801969
 H         -6.2780856518       -3.6301787522       -1.7950617264
 H         -5.4637802865       -1.2686955728       -1.9005880266
 H         -2.4354218553       -0.5913110162        0.0081031289
 H         -3.3432857386        2.5716074691       -1.5143425972
 H         -1.7826239207        4.4907821286       -1.5504294950
 H          0.4564564576        4.2919566222       -0.5683583462
 H          1.4097945040        1.8473334611        1.7277495705
 C          2.4835908093        3.2380942133        0.5097254844
 C          2.3913531590        4.3880704261        1.4662936917
 C          3.5565415465        3.4484984139        1.5342547348
 H          4.5232471682        3.7982622550        1.2044254457
 H          3.6029501884        2.7482061173        2.3556190207
 H          2.5600476990        5.3861267826        1.0910851310
 H          1.6469822865        4.3305037074        2.2461085467
 H          2.7318307596        3.4484557303       -0.5243843341
