  62
        -98.94055013
 C         -1.7932612583       -0.8184392039       -0.3755119141
 C         -3.1160785347       -1.3096131664       -0.5178606781
 C         -4.1286242114       -0.7019284032        0.3523594640
 C         -3.7601704719        0.2211052553        1.2587470458
 C         -4.6697809087        0.9153521903        2.2356792118
 C         -5.4015265733        2.1320692671        1.6524609594
 C         -6.5227474087        1.8064273888        0.6647270347
 H         -7.2025674488        1.0819000964        1.1141613439
 H         -7.0874804671        2.7273698378        0.5064728476
 C         -6.0378066001        1.2853687924       -0.6954608001
 H         -4.9785126077        1.5225500266       -0.8190216447
 H         -6.5752985069        1.7994185137       -1.4954856778
 C         -6.2374122841       -0.2155176556       -0.9072372667
 H         -7.3051790256       -0.4450547682       -0.9191784419
 H         -5.8253137884       -0.4823348642       -1.8839760481
 C         -5.5598942531       -1.0973101875        0.1499386889
 H         -6.1071281770       -1.0448806305        1.0910409146
 H         -5.5723080563       -2.1307150047       -0.2054666071
 H         -5.8340922832        2.6836322673        2.4903820776
 H         -4.6687316286        2.7827900678        1.1697744030
 H         -4.0389899752        1.2551162142        3.0600867581
 H         -5.3983127409        0.2044298488        2.6268875307
 O         -2.4708487965        0.6212753177        1.4083366167
 C         -1.4574064105        0.1290055425        0.5927267993
 O         -0.3367388357        0.6059701417        0.8441154003
 O         -3.4319674493       -2.2200867949       -1.3293045687
 C         -0.7275370954       -1.4093365553       -1.2799805555
 C          0.4987782994       -1.7835647222       -0.4850005164
 C          0.3411115154       -2.5546774485        0.6644706848
 C          1.4276625115       -2.9045034250        1.4415007708
 C          2.7053782374       -2.5133193491        1.0791181929
 C          2.8770464983       -1.7618394072       -0.0735075170
 C          1.7805280208       -1.4008156948       -0.8483778780
 H          1.9375101781       -0.7975955855       -1.7289999405
 N          4.1828240477       -1.3811383243       -0.4533731959
 S          4.9791687456       -0.2520459478        0.4935750942
 O          6.3271175482       -0.1866820300       -0.0249461484
 O          4.8424309669       -0.6236823713        1.8778283918
 C          4.1477282107        1.2926446291        0.1668842963
 C          2.8656320562        1.4747146365        0.6444736083
 C          2.1986379007        2.6496519904        0.3359376858
 C          2.8203157164        3.6177343907       -0.4369679757
 C          4.1107869221        3.4207830059       -0.9063403933
 C          4.7805504862        2.2454529028       -0.6083913247
 H          5.7819841541        2.0470027362       -0.9550036797
 H          4.5924787284        4.1763032985       -1.5062078863
 H          2.2945750454        4.5290650152       -0.6756607546
 H          1.1896931663        2.7775257485        0.6944513494
 H          2.3865652780        0.7109668969        1.2354242058
 H          4.2505431821       -1.0984460196       -1.4216664610
 H          3.5634655702       -2.7631327299        1.6810609802
 H          1.2818363907       -3.4905108747        2.3367053019
 H         -0.6549975010       -2.8643314045        0.9517409114
 H         -1.1808912567       -2.3434441879       -1.6534509138
 C         -0.4173525054       -0.5595828798       -2.5051082594
 C         -1.3675864270        0.4958060939       -2.9843346334
 C         -0.0506273934        0.8895158300       -2.3894984255
 H          0.7111385334        1.2834415620       -3.0467912817
 H         -0.0388713892        1.3185356647       -1.4002069605
 H         -1.5101947445        0.6099141087       -4.0485777928
 H         -2.2628405827        0.6674844176       -2.4043938994
 H          0.0872738877       -1.1295508124       -3.2794664345
