  62
        -98.94682917
 C          1.2627909705        1.2047694094        0.0750929003
 C          2.0708042308        0.7446871695        1.1405921101
 C          2.7189086007       -0.5554952905        0.9338659301
 C          2.4858620703       -1.2441439607       -0.1986394097
 C          3.0554471502       -2.5935359208       -0.5436560797
 C          4.4630566100       -2.5396506709       -1.1535513902
 C          5.5852264203       -2.1964730507       -0.1732181906
 H          5.5273597506       -2.8589100006        0.6911152395
 H          6.5291698801       -2.4059626208       -0.6803650809
 C          5.5919603005       -0.7348096207        0.2957126992
 H          4.9826918303       -0.1316172608       -0.3812034607
 H          6.6096282005       -0.3408777807        0.2463851488
 C          5.0953046610       -0.5256809005        1.7263048393
 H          5.1096809311        0.5461063396        1.9406872492
 H          5.7749393512       -1.0170212904        2.4262784092
 C          3.6730685811       -1.0414967804        1.9828739699
 H          3.6708345110       -2.1304307804        2.0274106200
 H          3.3360830514       -0.6514120902        2.9467157499
 H          4.6717410498       -3.5239024709       -1.5791136001
 H          4.4619123097       -1.8166746310       -1.9723168403
 H          3.0679289105       -3.2254130306        0.3448222004
 H          2.3816174699       -3.0366713309       -1.2788886694
 O          1.6671617500       -0.7855161508       -1.1809271595
 C          1.0455011601        0.4500315392       -1.0788752195
 O          0.3387992897        0.7526748691       -2.0561569393
 H         -0.8498233491        0.7735025596        1.5820097711
 C         -1.4920793693        1.3366089595        0.9154920912
 C         -0.9331458495        2.3289845394        0.1183381609
 C         -1.7699821298        3.0468635393       -0.7246099189
 C         -3.1238140998        2.7596133993       -0.7809735684
 C         -3.6726127696        1.7613583294        0.0024211619
 C         -2.8453673693        1.0476115495        0.8604161417
 N         -3.3924227990        0.0217051697        1.6635546421
 S         -4.0206745593       -1.2968573604        0.8417820525
 O         -5.1952135496       -0.8780659805        0.1209539228
 O         -4.2169068490       -2.3163536403        1.8476492027
 C         -2.7455880497       -1.7978475206       -0.2988019079
 C         -1.8093075796       -2.7218622906        0.1199322719
 C         -0.7973331299       -3.0911411507       -0.7506776283
 C         -0.7336320103       -2.5239726509       -2.0139775484
 C         -1.6735187904       -1.5878423510       -2.4146491783
 C         -2.6911614201       -1.2186332008       -1.5504382580
 H         -3.4416796802       -0.4971230608       -1.8290527178
 H         -1.6065981107       -1.1337844811       -3.3894998184
 H          0.0578748495       -2.8030185810       -2.6914934887
 H         -0.0611648298       -3.8154363007       -0.4394349085
 H         -1.8988885193       -3.1452355704        1.1079294720
 H         -2.7465925788       -0.3108375902        2.3664010919
 H         -4.7200372696        1.5111905994       -0.0457683877
 H         -3.7604301800        3.3202607092       -1.4485060183
 H         -1.3623074800        3.8249603192       -1.3484811792
 C          0.5575211105        2.5429488594        0.2048231604
 H          0.7962839709        2.9056240195        1.2157336902
 C          1.0934001002        3.5322113292       -0.8078311199
 C          1.0480825603        5.0028479193       -0.5225551701
 C          2.3572321003        4.2743367793       -0.4966462705
 H          3.0628988301        4.4494402391       -1.2948564507
 H          2.8208464506        4.0861264094        0.4608910894
 H          0.6244674806        5.3167545394        0.4194517599
 H          0.8571810301        5.6818956992       -1.3397669602
 H          0.9464777999        3.2022925291       -1.8299761298
 O          2.2326937912        1.3829274997        2.2166131100
