  62
        -98.93353389
 C         -2.5677028768       -1.1994316412        0.3074418519
 C         -2.6048921903       -0.3076559024       -0.7919257629
 C         -3.5497900950        0.8204228239       -0.6835527236
 C         -4.2918846808        0.9633985810        0.4268380977
 C         -5.3433276900        2.0020059859        0.7276571040
 C         -5.0284778038        3.4567813944        0.3519599616
 C         -3.5469335332        3.8481273395        0.4536347374
 H         -2.9895806992        3.0724397624        0.9822015967
 H         -3.4621381892        4.7650972203        1.0399832876
 C         -2.9010567653        4.1019582767       -0.9108283931
 H         -2.0057747712        4.7116142033       -0.7669390201
 H         -3.5957203976        4.6812306871       -1.5229756037
 C         -2.4778258738        2.8520735058       -1.6820882791
 H         -1.6178425769        2.3857325473       -1.1930028200
 H         -2.1473822633        3.1661547962       -2.6749299033
 C         -3.5621717830        1.7741274001       -1.8434121681
 H         -3.3139572834        1.1798633060       -2.7268595827
 H         -4.5434426326        2.2195707384       -1.9878097613
 H         -5.6183218323        4.0887923865        1.0179942291
 H         -5.3783886243        3.6557591844       -0.6600057974
 H         -6.2716596069        1.6981833573        0.2352837913
 H         -5.5124891465        1.9302691792        1.8048383426
 O         -4.1915220754        0.1039002074        1.4814703686
 C         -3.3258929764       -0.9758038658        1.4575233806
 O         -3.3159663607       -1.6464347806        2.5102261344
 H         -0.1309509637       -0.4777257068        1.3538241673
 C          0.3803048120       -0.9615495108        0.5285647305
 C         -0.2607863964       -1.9936556475       -0.1473354472
 C          0.4062395713       -2.6088955023       -1.1974906152
 C          1.6733777940       -2.1890044472       -1.5638411765
 C          2.3008603668       -1.1538821552       -0.8966704982
 C          1.6448702894       -0.5332986801        0.1586407498
 N          2.2757271268        0.5284316382        0.8365694656
 S          3.7850351349        0.2167632336        1.5091472916
 O          3.9214378347       -1.1753909901        1.8718038737
 O          3.9276651736        1.1769471259        2.5822503833
 C          4.9312469765        0.6243289631        0.2095985631
 C          4.9098623003        1.9083186252       -0.2988211354
 C          5.8015751464        2.2439056954       -1.3050011733
 C          6.6959301608        1.2963621682       -1.7807513062
 C          6.7067958853        0.0124719786       -1.2573286015
 C          5.8167565239       -0.3301603552       -0.2512340969
 H          5.7845373006       -1.3167924449        0.1826280621
 H          7.4027981601       -0.7225266381       -1.6284879847
 H          7.3886673193        1.5605419250       -2.5641108482
 H          5.7961363775        3.2412679092       -1.7143990817
 H          4.2021287255        2.6149066539        0.1016910922
 H          1.6817986528        0.9785803357        1.5182584245
 H          3.2833157334       -0.8185000675       -1.1862308041
 H          2.1767910284       -2.6715525827       -2.3876537963
 H         -0.0733653283       -3.4035912313       -1.7443973923
 C         -1.6348983002       -2.3977785774        0.3303038262
 H         -1.5466807795       -2.6664674239        1.3969753893
 C         -2.1832215435       -3.6279509815       -0.3778264641
 C         -3.6597647657       -3.8469209305       -0.5153362419
 C         -2.8296802002       -3.5546005335       -1.7272176067
 H         -2.6471499217       -4.3576568504       -2.4262897184
 H         -2.9114668319       -2.5832386016       -2.1877577618
 H         -4.3178387246       -3.0744462081       -0.1439700700
 H         -4.0430466808       -4.8471508252       -0.3794131970
 H         -1.5877149367       -4.5114743332       -0.1685571743
 O         -1.8991834500       -0.4372972390       -1.8235075603
