  62
        -98.93799502
 C          1.9797518800        0.8000094814        0.6119872898
 C          2.0429400799        0.0702817510       -0.5977927600
 C          2.1887643307       -1.3888888089       -0.4707588895
 C          2.1960993915       -1.9478600985        0.7508596607
 C          2.2735433123       -3.4112533783        1.1088823511
 C          3.2905603124       -4.2739294681        0.3468059710
 C          4.5643905519       -3.5406798076       -0.0984860398
 H          4.6258304316       -2.5675258374        0.3915007199
 H          5.4342132423       -4.1202540370        0.2160573201
 C          4.6474567612       -3.3555208681       -1.6156812599
 H          5.6905232710       -3.1836178776       -1.8914638604
 H          4.3294163414       -4.2819941184       -2.0984337994
 C          3.8329952404       -2.1925493387       -2.1814317699
 H          3.8801725699       -2.2467271790       -3.2716107899
 H          4.2882615900       -1.2431150383       -1.8871424705
 C          2.3564759505       -2.1490162892       -1.7544336293
 H          1.7994207499       -1.5867145398       -2.5088820893
 H          1.9324895410       -3.1481086594       -1.6870467888
 H          3.5585279331       -5.1006567677        1.0067612712
 H          2.8107468623       -4.7123137686       -0.5271426787
 H          2.5035144528       -3.4299692578        2.1770115010
 H          1.2736835825       -3.8388857988        0.9874128717
 O          2.0944396816       -1.2080817981        1.8929124204
 C          1.9839249509        0.1707871018        1.8539504400
 O          1.9046012311        0.7141612222        2.9763776399
 H         -0.5602043700        1.1564580902        0.8965236707
 C         -0.6014171207        1.9192693100        0.1311692205
 C          0.5433191188        2.6449204404       -0.1748448802
 C          0.4641001479        3.6317897500       -1.1482429405
 C         -0.7259119025        3.8557162792       -1.8195063501
 C         -1.8508559120        3.1022040888       -1.5419462694
 C         -1.7869234011        2.1264917791       -0.5522746091
 N         -2.9211406906        1.3649016587       -0.2186809484
 S         -2.7051440796       -0.2158150510        0.3310074621
 O         -2.3788306790       -0.1789755604        1.7357988619
 O         -1.7878495496       -0.9343445509       -0.5252025880
 C         -4.3649060994       -0.8362339019        0.1255216730
 C         -4.6667399094       -1.6446684524       -0.9536089166
 C         -5.9702726293       -2.0886201031       -1.1146057359
 C         -6.9446346391       -1.7152554233       -0.2013828656
 C         -6.6263267590       -0.9033402228        0.8774555040
 C         -5.3250012492       -0.4578887121        1.0454240333
 H         -5.0268975491        0.1658120484        1.8719652829
 H         -7.3855980689       -0.6168863029        1.5870487742
 H         -7.9580886889       -2.0610710738       -0.3297227351
 H         -6.2195341793       -2.7222719835       -1.9503880256
 H         -3.8742148496       -1.9120639423       -1.6341229568
 H         -3.6458452409        1.4142410481       -0.9221567381
 H         -2.7712092123        3.2644828381       -2.0818636891
 H         -0.7725601532        4.6186037489       -2.5817865104
 H          1.3367357575        4.2150539304       -1.3922518211
 C          1.8089656393        2.3080426613        0.5765349894
 H          1.6810366996        2.6242969416        1.6228174493
 C          3.0473719887        2.9708944817        0.0105703886
 C          3.4277881982        4.3543304320        0.4426228080
 C          4.2292654390        3.1769754026        0.9079119481
 H          5.2181740589        3.0297039530        0.5005162077
 H          4.1290770996        2.8600604229        1.9361857182
 H          3.8715604976        5.0180793020       -0.2838780924
 H          2.7892521583        4.8462518420        1.1606892381
 H          3.2413795584        2.6790279115       -1.0151634014
 O          1.9810154092        0.6098118006       -1.7337634001
