  62
        -98.94004308
 C         -2.6668124100       -1.0595066083        0.2259431107
 C         -2.3540963301       -0.2592614584       -0.8985928693
 C         -2.8495798996        1.1276262418       -0.8702896891
 C         -3.6099831792        1.5414057319        0.1608582112
 C         -4.2789325688        2.8756016421        0.4156678514
 C         -3.7524699585        4.1465944820       -0.2490056086
 C         -2.3235068883        4.5340564316        0.1299424911
 H         -2.0449160082        5.4136861815       -0.4544177390
 H         -2.3026964280        4.8160842215        1.1856978211
 C         -1.2674045787        3.4501182212       -0.0793073093
 H         -0.2900100985        3.8675149009        0.1818329905
 H         -1.4473269588        2.6235025212        0.6126271807
 C         -1.1639470992        2.8924292713       -1.4989402093
 H         -0.2624251494        2.2725712810       -1.5348214396
 H         -1.0306296092        3.7140345513       -2.2055277393
 C         -2.3514886896        2.0260803617       -1.9630125291
 H         -1.9976511200        1.3728658517       -2.7655703292
 H         -3.1577711495        2.6357144620       -2.3641419489
 H         -4.4100132782        4.9584656022        0.0733992816
 H         -3.8447933688        4.0750949721       -1.3286189786
 H         -5.3295045489        2.7502690025        0.1312249917
 H         -4.2642789585        3.0082184521        1.5017596614
 O         -3.9523425093        0.7044906920        1.1843917012
 C         -3.4501420496       -0.5841866982        1.2731939310
 O         -3.7668987696       -1.1900974182        2.3176066310
 O         -1.6855826604       -0.6778899285       -1.8782902095
 C         -2.0694581904       -2.4501488685        0.3428354105
 C         -0.5689032004       -2.3498255890        0.1977736601
 C          0.1862352091       -3.2081876992       -0.5898084101
 C          1.5517975891       -3.0206539496       -0.7209950004
 C          2.1929035296       -1.9801162398       -0.0743506405
 C          1.4494137401       -1.1250473997        0.7284808997
 C          0.0867308400       -1.3254428992        0.8702400001
 H         -0.4891881296       -0.6498741291        1.4932003902
 N          2.0929566806       -0.0541792599        1.3867452797
 S          2.7640246007        1.1180742800        0.3775641996
 O          2.8236782212        2.3200682199        1.1818674796
 O          2.0525205904        1.2178947803       -0.8748595102
 C          4.4170679204        0.5193086595        0.0992564291
 C          4.8375654600        0.2315899894       -1.1841857710
 C          6.1276348698       -0.2385570710       -1.3762336713
 C          6.9684774000       -0.4114567413       -0.2873797116
 C          6.5309119304       -0.1158314412        0.9953443986
 C          5.2431770706        0.3556899291        1.1941190389
 H          4.8635166410        0.6013245192        2.1717985590
 H          7.1878434806       -0.2518871915        1.8392212784
 H          7.9709222599       -0.7791273716       -0.4395392118
 H          6.4692067695       -0.4691361210       -2.3725288814
 H          4.1446714199        0.3749399997       -1.9980042808
 H          1.4967605309        0.4022110002        2.0635584798
 H          3.2530827196       -1.8217383101       -0.1870303008
 H          2.1236502488       -3.6902689597       -1.3450478006
 H         -0.2975653213       -4.0147049790       -1.1159607300
 H         -2.3008497803       -2.8011646985        1.3593981905
 C         -2.7112189510       -3.3890247183       -0.6570728894
 C         -2.8286334613       -4.8520116683       -0.3547060695
 C         -4.0484035211       -3.9820627279       -0.3334251291
 H         -4.7724913413       -4.0848011076       -1.1275826889
 H         -4.4830365308       -3.7273126978        0.6224518410
 H         -2.7190924718       -5.5564604382       -1.1653497396
 H         -2.4400956412       -5.2004436484        0.5902246904
 H         -2.5316000011       -3.0865436383       -1.6823898094
