  62
        -98.94558627
 C          1.4755742004        1.3177855508       -0.6345143502
 C          2.7837862904        1.2728755005       -0.0842414401
 C          3.6337974002        0.1556107803       -0.5046264100
 C          3.1590330500       -0.7452512195       -1.3833546501
 C          3.9061224298       -1.9331144897       -1.9264196501
 C          3.8593802094       -3.1656307597       -1.0131894901
 C          4.7120774093       -3.0682133600        0.2525517599
 H          4.7641840691       -4.0710327700        0.6812027899
 H          5.7275180794       -2.7748502802       -0.0160654800
 C          4.1600566295       -2.1070337499        1.3148511899
 H          3.1073677695       -1.8979952596        1.1060879199
 H          4.1982356393       -2.5877477999        2.2952614499
 C          4.9180751098       -0.7840108201        1.4295673800
 H          5.9365666097       -0.9752888503        1.7749435701
 H          4.4165412699       -0.1680551700        2.1804878300
 C          4.9870234901        0.0213806500        0.1256765501
 H          5.6856915900       -0.4451421002       -0.5685062199
 H          5.3444174503        1.0265285599        0.3624970401
 H          4.2109120492       -4.0190441798       -1.5979642901
 H          2.8189354093       -3.3568632195       -0.7376564602
 H          3.4331185598       -2.1908038396       -2.8764994701
 H          4.9440840599       -1.6582897099       -2.1169568200
 O          1.9123538001       -0.6560721692       -1.9106772202
 C          1.0283773503        0.3456910210       -1.5293341102
 O         -0.0837562297        0.2520299413       -2.0836188003
 O          3.2242011905        2.1399939304        0.7178038700
 C          0.5845426407        2.4473226310       -0.1423984802
 C         -0.1644654395        1.9891414012        1.0876003497
 C          0.0588623305        2.5924950311        2.3190452398
 C         -0.5927261597        2.1369497512        3.4514423097
 C         -1.4639630299        1.0667904814        3.3758431496
 C         -1.6962339400        0.4553642015        2.1466571196
 C         -1.0628677698        0.9330218514        1.0090472796
 H         -1.2318145498        0.4490589014        0.0617259696
 N         -2.5850479802       -0.6209078983        2.0581965795
 S         -2.4749596504       -1.8268190883        0.9018125094
 O         -3.0962121707       -2.9711072082        1.5393998093
 O         -1.1192307404       -2.0178476986        0.4453612895
 C         -3.5601145102       -1.2506706080       -0.3862067806
 C         -4.9119091702       -1.2379858777       -0.0956917407
 C         -5.8024051200       -0.7856043874       -1.0540774608
 C         -5.3287178398       -0.3539029175       -2.2845466307
 C         -3.9712082198       -0.3754380578       -2.5605029606
 C         -3.0724897600       -0.8287388181       -1.6051523806
 H         -2.0101698600       -0.8406710483       -1.7961852305
 H         -3.5960658797       -0.0388860379       -3.5140212506
 H         -6.0202087697        0.0004533927       -3.0328222208
 H         -6.8591741500       -0.7695625072       -0.8413448809
 H         -5.2362764504       -1.5935279876        0.8681657992
 H         -2.9253422304       -0.9711763082        2.9408161294
 H         -1.9592889801        0.6977399415        4.2610926796
 H         -0.4097101396        2.6101818011        4.4042735797
 H          0.7661389007        3.4056947609        2.3883956999
 H          1.2756906408        3.2429584608        0.1692078199
 C         -0.3601319191        3.0149929113       -1.1805815402
 C         -0.8837991188        4.4068442114       -0.9956518302
 C          0.1118270612        4.1177771612       -2.0778946202
 H         -0.2208857287        4.1212571813       -3.1047931702
 H          1.1248710213        4.4698366910       -1.9472849601
 H         -1.9047247487        4.6127890117       -1.2774494103
 H         -0.5453514587        4.9583336713       -0.1315783602
 H         -1.0269647492        2.2797216515       -1.6098944203
