  62
        -98.93478401
 C         -2.2728527385       -1.0946209950       -0.0845735005
 C         -1.9676006777        0.1517307329       -0.6787472445
 C         -2.5949984431        1.3419221960       -0.0726875126
 C         -3.3829974563        1.1963491980        1.0055971547
 C         -4.1380725182        2.2639622357        1.7481247685
 C         -5.5706050237        2.4004618213        1.2044140624
 C         -5.7232901394        3.3574317405        0.0228698909
 H         -6.7486576214        3.2624375965       -0.3415259684
 H         -5.5935384631        4.3834252197        0.3734585027
 C         -4.7621992034        3.1136035919       -1.1431598658
 H         -4.6894718998        2.0428100787       -1.3416076348
 H         -5.1897141266        3.5796326560       -2.0329646924
 C         -3.3613129104        3.6952375276       -0.9016919711
 H         -3.0749824839        4.3152319303       -1.7538490743
 H         -3.3922841391        4.3562168584       -0.0358880191
 C         -2.2465601342        2.6558492572       -0.7187114053
 H         -1.4215903318        3.1066642337       -0.1555895151
 H         -1.8407823919        2.3840044089       -1.6982917577
 H         -5.9159466276        1.4035365963        0.9189523048
 H         -6.2179601151        2.7519592810        2.0103090713
 H         -3.6077287681        3.2107082397        1.7069461722
 H         -4.1902067804        1.9369285410        2.7888248767
 O         -3.6444264041       -0.0211424681        1.5560367125
 C         -3.1026541199       -1.1793422625        1.0383200617
 O         -3.4319172600       -2.2153911351        1.6501543822
 O         -1.2112137427        0.2975228195       -1.6780544653
 C         -1.6946696356       -2.4199148239       -0.5626062701
 C         -0.2901916494       -2.5768371072       -0.0295664786
 C          0.0094106863       -3.5378653997        0.9286144613
 C          1.2855893108       -3.6336020096        1.4565781306
 C          2.2860784052       -2.7695811842        1.0476641009
 C          1.9929138765       -1.8034345100        0.0949684441
 C          0.7199655209       -1.7220168743       -0.4471551060
 H          0.4961520359       -0.9561173366       -1.1750069724
 N          2.9987377715       -0.8888346239       -0.3105561126
 S          3.4165292562        0.2177990084        0.9016365777
 O          4.0180503683       -0.5090855724        1.9903641798
 O          2.2765228280        1.0444296906        1.2422781853
 C          4.6527364024        1.1888224322        0.0625016974
 C          4.2663190626        2.3278692961       -0.6173221345
 C          5.2267997771        3.0621182982       -1.2951787433
 C          6.5491643304        2.6446024507       -1.2842695285
 C          6.9211374309        1.4981335337       -0.5981534122
 C          5.9657668762        0.7598814592        0.0819471328
 H          6.2079606651       -0.1322598475        0.6350490998
 H          7.9505188328        1.1782123673       -0.5907095361
 H          7.2941931540        3.2185076785       -1.8123144589
 H          4.9397689064        3.9546210790       -1.8277086070
 H          3.2284446984        2.6208925378       -0.5913265892
 H          2.6744121738       -0.3501358081       -1.1058334798
 H          3.2751377109       -2.8134909521        1.4728923464
 H          1.5015974297       -4.3841774200        2.2019649757
 H         -0.7734663884       -4.1964269070        1.2767929692
 H         -2.3164400972       -3.1974103270       -0.0991326829
 C         -1.7490932813       -2.5964339818       -2.0670978798
 C         -1.6471054186       -3.9781219948       -2.6369024790
 C         -2.9512392196       -3.2414149683       -2.6853970407
 H         -3.3019025265       -2.8705832247       -3.6367539235
 H         -3.7429609344       -3.5611399337       -2.0232618820
 H         -1.0997495732       -4.1160789279       -3.5565211249
 H         -1.5547007894       -4.7991198377       -1.9420628614
 H         -1.2835317165       -1.7885178337       -2.6150488888
