  62
        -98.93976147
 C          2.5748700005        1.3734416392        0.2026570273
 C          2.8232133338        0.4666018940       -0.8573141807
 C          3.9418608739       -0.4658052443       -0.6508523293
 C          4.6531959581       -0.4282161740        0.4894883967
 C          5.8309616675       -1.2992615241        0.8327864318
 C          5.4487800146       -2.6704298079        1.4066791515
 C          4.8705640253       -3.6607169430        0.3950986105
 H          5.5397688338       -3.7349138189       -0.4626651658
 H          4.8518352402       -4.6390626035        0.8792490339
 C          3.4523034922       -3.3212349522       -0.0844506869
 H          2.8353453413       -4.2225132509       -0.0642191703
 H          2.9956279879       -2.6057104903        0.6036061089
 C          3.3824485562       -2.7572123746       -1.5036401637
 H          2.3385752781       -2.5245640910       -1.7303916550
 H          3.7182374367       -3.5141670438       -2.2160231476
 C          4.2097025444       -1.4831300626       -1.7193955122
 H          5.2713639267       -1.7264607141       -1.7542730678
 H          3.9189916775       -1.0444134958       -2.6772818333
 H          6.3539251581       -3.1079444897        1.8338718030
 H          4.7351202036       -2.5219563992        2.2202547493
 H          6.4565270335       -1.4343823317       -0.0500238244
 H          6.4060557675       -0.7585646963        1.5874537136
 O          4.3809114844        0.4538353227        1.4869466989
 C          3.3415565101        1.3598371368        1.3727569319
 O          3.2040133528        2.1033215480        2.3643897848
 H          0.2247266539        0.2309214126       -0.7802973203
 C         -0.3565355724        0.7290745694       -0.0177342659
 C          0.1478311572        1.8767398615        0.5789909709
 C         -0.6198973092        2.5152116751        1.5454170469
 C         -1.8618396567        2.0177960121        1.9005362192
 C         -2.3633882531        0.8785204043        1.2971523793
 C         -1.6031319538        0.2322938038        0.3312780628
 N         -2.1176049230       -0.9226513451       -0.2961272113
 S         -3.5176313035       -0.6804355455       -1.2027069387
 O         -3.5360826089       -1.7470141889       -2.1794162062
 O         -3.5774213686        0.6679258608       -1.7192987985
 C         -4.8332037835       -0.9417785264       -0.0320743197
 C         -4.9338485732       -2.1813234268        0.5690327958
 C         -5.9552679111       -2.4021264580        1.4790661688
 C         -6.8549236575       -1.3867259100        1.7684898223
 C         -6.7420249150       -0.1489380520        1.1539879516
 C         -5.7218293786        0.0789668891        0.2434227753
 H         -5.5909392800        1.0257701323       -0.2555818136
 H         -7.4424314505        0.6389012361        1.3801439039
 H         -7.6492011709       -1.5614462361        2.4769388988
 H         -6.0466914794       -3.3632419703        1.9588846800
 H         -4.2174628056       -2.9434466804        0.3112255168
 H         -1.4297317270       -1.3884221194       -0.8723225231
 H         -3.3304074780        0.4867984040        1.5675496119
 H         -2.4462114380        2.5232856260        2.6539574054
 H         -0.2323917401        3.4030128012        2.0236513930
 C          1.4841410376        2.4319072151        0.1591227097
 H          1.7828725008        3.1780116449        0.9120520931
 C          1.4218067339        3.1498199492       -1.1846874244
 C          0.2784897424        3.0387511785       -2.1444453896
 C          0.4852838411        4.3062432744       -1.3741822544
 H          0.8400012567        5.1815341212       -1.8968298118
 H         -0.2083976423        4.5180490594       -0.5743903206
 H          0.5133133618        3.0245581888       -3.1982412266
 H         -0.5632332769        2.4140234776       -1.8860845395
 H          2.4064101833        3.2481700282       -1.6312583113
 O          2.1627612902        0.4176774314       -1.9282714175
