  62
        -98.94967204
 C         -1.4981289896       -1.0614276313        0.0406648101
 C         -2.5114063899       -0.6313660713        0.9275635998
 C         -3.0464329504        0.7143499284        0.6872293391
 C         -2.5317631705        1.4585948782       -0.3091369712
 C         -3.0133179709        2.8278170778       -0.6911301018
 C         -4.1125582407        2.7545698870       -1.7604562120
 C         -5.2320153404        1.7681765667       -1.4274097417
 H         -5.9644739403        1.8223819061       -2.2355630118
 H         -4.8247995001        0.7546128569       -1.4282786412
 C         -5.9304236707        2.0308947371       -0.0860278619
 H         -5.7237768111        3.0488812473        0.2461890777
 H         -7.0097233407        1.9491265766       -0.2304836320
 C         -5.5548444505        1.0502517477        1.0263480186
 H         -6.2558412107        1.1893021478        1.8536870284
 H         -5.6723536701        0.0251224475        0.6662156190
 C         -4.1391434807        1.1992875385        1.5983521287
 H         -4.0759932606        0.5782244289        2.4970878990
 H         -3.9646907911        2.2376730587        1.8891050783
 H         -4.5319128110        3.7536283167       -1.8923090825
 H         -3.6560431505        2.4494788167       -2.7048019018
 H         -3.3862239112        3.3354574081        0.1965301579
 H         -2.1647070810        3.3895002179       -1.0859241020
 O         -1.5390244102        1.0230742082       -1.1237965208
 C         -0.9920252798       -0.2384637716       -0.9645464002
 O         -0.0818996196       -0.5116664216       -1.7716319399
 O         -2.9449522798       -1.3400690010        1.8779335901
 C         -0.8884504892       -2.4385196810        0.2230893209
 C          0.6053787408       -2.3345894404        0.4093309510
 C          1.5029223812       -3.2481707103       -0.1304193884
 C          2.8649919211       -3.0961937298        0.0643739317
 C          3.3621489906       -2.0214349693        0.7784527113
 C          2.4718881402       -1.1074992193        1.3291430307
 C          1.1082787303       -1.2844178799        1.1667608406
 H          0.4332860400       -0.5629969199        1.6043331902
 N          2.9215722497        0.0267306312        2.0409937003
 S          2.6191864393        1.5089932107        1.3134595896
 O          3.2568065688        2.4854893913        2.1716089592
 O          1.2047841893        1.6741732001        1.1005050093
 C          3.5069942795        1.4119190903       -0.2311786902
 C          4.7896877194        1.9250316708       -0.2813280603
 C          5.5267514196        1.7808048905       -1.4450030201
 C          4.9750369800        1.1170463998       -2.5308473999
 C          3.6888053501        0.6052460394       -2.4621380999
 C          2.9415315699        0.7496263797       -1.3022305600
 H          1.9357768001        0.3634017593       -1.2340733200
 H          3.2515851405        0.0881761289       -3.3012214397
 H          5.5491947502        0.9980670496       -3.4361550698
 H          6.5262213495        2.1811732708       -1.5004652002
 H          5.1741014991        2.4346328213        0.5876358495
 H          3.9010004497       -0.0171414684        2.2903993405
 H          4.4254008205       -1.8862992988        0.9084007114
 H          3.5486762714       -3.8140936197       -0.3620106679
 H          1.1346184315       -4.0788528107       -0.7099623681
 H         -1.3266316592       -2.8334227707        1.1525354210
 C         -1.2853991687       -3.3437800517       -0.9260787788
 C         -1.4739448282       -4.8147763316       -0.7080028982
 C         -2.6631274985       -3.9328971122       -0.9376097187
 H         -3.1872768983       -4.0028517928       -1.8789373288
 H         -3.3035247487       -3.7052888420       -0.0977681489
 H         -1.1838173678       -5.4938720519       -1.4955588378
 H         -1.3148627882       -5.1977203811        0.2886647420
 H         -0.8747250787       -3.0126080420       -1.8735760189
