  62
        -98.94503101
 C          2.2541735898        0.7914136706        0.0690371512
 C          1.5084491201        0.0180665602       -0.8468177288
 C          1.7575507109       -1.4358322197       -0.8573950988
 C          2.6954309911       -1.9368054092       -0.0323550588
 C          3.1433628819       -3.3664123789        0.1319504212
 C          2.1518262823       -4.2218614394        0.9307037613
 C          0.6985151122       -4.0950247601        0.4836789814
 H          0.0926448226       -4.7159843704        1.1500869614
 H          0.3631472217       -3.0656680303        0.6242518214
 C          0.4210600024       -4.5408183803       -0.9509416786
 H         -0.6648291276       -4.5447114309       -1.0766031286
 H          0.7749581229       -5.5660945401       -1.0823488386
 C          1.0182088719       -3.6659806701       -2.0581207887
 H          0.4827787820       -3.9025604703       -2.9820032986
 H          2.0634946020       -3.9052878095       -2.2373354387
 C          0.8603269612       -2.1674570801       -1.8251176187
 H          0.9735851709       -1.6443609201       -2.7817996287
 H         -0.1661605189       -1.9625092206       -1.4973757387
 H          2.4674761528       -5.2652260093        0.8622592313
 H          2.2063704822       -3.9199731394        1.9798333213
 H          3.3356289420       -3.8137278989       -0.8388903088
 H          4.0899619119       -3.3327622285        0.6768381512
 O          3.4054814508       -1.1462604388        0.8261614912
 C          3.1855387701        0.2126048411        0.9265695111
 O          3.8757184799        0.7898577915        1.7938680511
 O          0.6631558199        0.5202926598       -1.6351487888
 C          2.0171377491        2.2869275505        0.1656488811
 C          0.5486286289        2.5738455298        0.3676295412
 C         -0.0979240616        3.6585049994       -0.2133498788
 C         -1.4511321717        3.8644516388       -0.0070843588
 C         -2.1931729713        2.9815440284        0.7560255113
 C         -1.5536398507        1.8990806988        1.3479552613
 C         -0.1903681006        1.7232693794        1.1796242012
 H          0.2893144998        0.8784753497        1.6526789912
 N         -2.2641442902        0.9434967984        2.1071524014
 S         -2.3382653595       -0.5999122816        1.4494704014
 O         -3.1768274090       -1.3553649420        2.3564485915
 O         -1.0093701692       -1.1079542910        1.2365448614
 C         -3.2033156696       -0.3666517621       -0.0937363686
 C         -2.5209466199        0.1127958582       -1.1937633386
 C         -3.2332550401        0.3679283378       -2.3566519086
 C         -4.6008433000        0.1474260372       -2.3991319485
 C         -5.2702309797       -0.3342224831       -1.2837686085
 C         -4.5674690095       -0.5890392828       -0.1178563285
 H         -5.0427137293       -0.9664391830        0.7733487115
 H         -6.3337401396       -0.5079858637       -1.3182849384
 H         -5.1470285101        0.3515086169       -3.3066326085
 H         -2.7051721503        0.7414552781       -3.2192370986
 H         -1.4545745100        0.2755664188       -1.1457353387
 H         -3.2010156503        1.2371454680        2.3501719814
 H         -3.2549189613        3.1230406779        0.8922841213
 H         -1.9380520622        4.7119593885       -0.4645937388
 H          0.4590093680        4.3413026797       -0.8340937989
 H          2.5640181189        2.6258968408        1.0584087211
 C          2.5940980187        2.9806904108       -1.0530472689
 C          3.1747399780        4.3579187410       -0.9438728690
 C          4.0770761086        3.1771489415       -1.1351878990
 H          4.5636074186        3.0448110717       -2.0898813190
 H          4.6657645988        2.8373288818       -0.2951673990
 H          3.0458986076        5.0391632110       -1.7715058290
 H          3.1635672078        4.8314942611        0.0262204810
 H          2.0739475588        2.7124940905       -1.9655982289
