  62
        -98.94361868
 C         -1.8323057218        0.3078339999        0.2787511325
 C         -2.9752952194        0.5547380737        1.0754040306
 C         -4.2560351622        0.5907656505        0.3608489088
 C         -4.2803957691        0.4180723702       -0.9735376040
 C         -5.5048564261        0.4568769136       -1.8474700153
 C         -6.2738724628       -0.8701113085       -1.9069897348
 C         -7.0526127407       -1.2287663308       -0.6407416403
 H         -7.6850104429       -0.3879683918       -0.3539242267
 H         -7.7127132820       -2.0603249032       -0.8954250886
 C         -6.1732958824       -1.6431644493        0.5473432574
 H         -5.1720318937       -1.8941460543        0.1899336557
 H         -6.5840266343       -2.5445677713        1.0077176380
 C         -6.0546738640       -0.5874123517        1.6464933472
 H         -5.3808458488       -0.9695092911        2.4176233258
 H         -7.0323227793       -0.4235478098        2.1052807496
 C         -5.5078120816        0.7635505581        1.1671149477
 H         -6.2649534767        1.2919758996        0.5880883664
 H         -5.2568497288        1.3632215668        2.0456924180
 H         -6.9827993111       -0.7982038341       -2.7350678037
 H         -5.5696517226       -1.6716873836       -2.1410004810
 H         -6.1719090708        1.2501580372       -1.5086649287
 H         -5.1592542322        0.6996819864       -2.8545843276
 O         -3.1554865316        0.2030191193       -1.7063095303
 C         -1.9083234111        0.1266839486       -1.1023909726
 O         -0.9694329585       -0.0963829904       -1.8889560661
 O         -2.9260150887        0.7453874581        2.3207977539
 C         -0.4719570539        0.2415689861        0.9464377348
 C          0.4603185900        1.2780232149        0.3696466194
 C         -0.0143323606        2.5674054782        0.1410707888
 C          0.8105805482        3.5420572569       -0.3841657042
 C          2.1336186657        3.2587876277       -0.6751206387
 C          2.6226656086        1.9811202293       -0.4368936185
 C          1.7867406915        0.9995789595        0.0792920579
 H          2.1868506082        0.0155643416        0.2572764577
 N          3.9545966739        1.6582925059       -0.7320477241
 S          4.8275469670        0.6643416397        0.2896567273
 O          4.4400327676        0.8430506197        1.6693502951
 O          6.2123995522        0.9517327833       -0.0202058227
 C          4.4561634376       -0.9924501293       -0.2453974229
 C          4.3962589090       -1.9984808581        0.6985799501
 C          4.1570244119       -3.2983523785        0.2804676433
 C          3.9825857691       -3.5678182885       -1.0680287057
 C          4.0474096682       -2.5462092711       -2.0034204701
 C          4.2910835527       -1.2454222699       -1.5926225420
 H          4.3431554254       -0.4288834200       -2.2932192653
 H          3.9072883986       -2.7586586135       -3.0511381264
 H          3.7933698847       -4.5792657013       -1.3915254470
 H          4.1062034437       -4.0940623668        1.0068829167
 H          4.5259168454       -1.7422996102        1.7381714059
 H          4.5133589709        2.4226838556       -1.0818573469
 H          2.7809536835        4.0196277989       -1.0842594149
 H          0.4237966154        4.5341840435       -0.5630466041
 H         -1.0455776582        2.7939549763        0.3757944995
 H         -0.6512134074        0.4993126143        2.0017294041
 C          0.0748544687       -1.1692917393        0.8775686212
 C          0.9715941588       -1.6913885907        1.9586540645
 C         -0.4373396826       -2.1893032073        1.8483213228
 H         -0.6027300891       -3.1972146941        1.4988803769
 H         -1.1584656627       -1.8566733424        2.5807794800
 H          1.7733106976       -2.3587002059        1.6807344430
 H          1.2170577938       -1.0242977006        2.7715400905
 H          0.2582184319       -1.4934240827       -0.1409653523
