  62
        -98.93830357
 C         -1.5889384900       -1.4987870191       -0.4196541993
 C         -1.4743814097       -0.2212775294       -1.0160485299
 C         -2.7062841395        0.5937191109       -1.0707281202
 C         -3.8541426896        0.0868587514       -0.5908737099
 C         -5.2079660295        0.7401283817       -0.5255040801
 C         -5.4175185992        1.4432996324        0.8259059796
 C         -4.9210169989        2.8871211523        0.8833371489
 H         -5.5719735287        3.5157516422        0.2720435287
 H         -5.0162050087        3.2242561128        1.9180779688
 C         -3.4739715988        3.0954591417        0.4301300887
 H         -3.1232187686        4.0428999618        0.8445161383
 H         -2.8376735090        2.3121681517        0.8476794991
 C         -3.3192459889        3.1318728510       -1.0974312913
 H         -4.3040217289        3.1990082910       -1.5591376313
 H         -2.7796987087        4.0373853807       -1.3838892117
 C         -2.5416289292        1.9536710006       -1.6943685708
 H         -2.7717213693        1.8774326001       -2.7629270408
 H         -1.4692306692        2.1631104903       -1.6214391510
 H         -4.9142305593        0.8508045226        1.5944132398
 H         -6.4842084792        1.4431102027        1.0592868196
 H         -5.3470413593        1.4284362314       -1.3535040904
 H         -5.9398183397       -0.0657805281       -0.6133776197
 O         -3.9231940299       -1.1541671084       -0.0328497394
 C         -2.8086521001       -1.9594610886        0.0839578009
 O         -3.0279310204       -3.0583033583        0.6332051614
 H          1.3825184103       -0.4120932796        0.0626062200
 C          1.2476363402       -0.9742457192        0.9702325503
 C          0.3626560299       -2.0435147990        0.9912952308
 C          0.1683885298       -2.7313379384        2.1846682411
 C          0.8448222000       -2.3555532781        3.3307258909
 C          1.7220797802       -1.2869046383        3.3078680904
 C          1.9201975303       -0.5877705889        2.1212664001
 N          2.8268775306        0.4768244409        2.0755214995
 S          2.6225320809        1.7892750205        1.0541902390
 O          3.4424625712        2.8211853005        1.6583968885
 O          1.2300135909        2.1186070907        0.8734200489
 C          3.4015155007        1.2688337296       -0.4588048208
 C          4.7566394106        1.0036852693       -0.4056620308
 C          5.4057470204        0.5918769486       -1.5573362307
 C          4.6919192803        0.4546718183       -2.7388373506
 C          3.3340744504        0.7289433386       -2.7754551906
 C          2.6769800906        1.1425690393       -1.6258848007
 H          1.6161168906        1.3395546196       -1.6188450108
 H          2.7749048103        0.6193501983       -3.6912440405
 H          5.1957127202        0.1318539678       -3.6364533104
 H          6.4621178104        0.3778890084       -1.5319451506
 H          5.2737895907        1.1322317996        0.5305404891
 H          3.2178582507        0.7469405012        2.9655930594
 H          2.2486737704       -0.9895337280        4.2021615802
 H          0.6847711899       -2.8965737776        4.2512149712
 H         -0.5342203204       -3.5520127482        2.2086904015
 C         -0.4111251902       -2.4472738093       -0.2421460790
 H         -0.8575708605       -3.4311516191       -0.0425337485
 C          0.4715176897       -2.5646534201       -1.4675437290
 C          1.3938081194       -3.7398527704       -1.5809548385
 C          0.1912132793       -3.6419182005       -2.4698766085
 H          0.3370918293       -3.4207065310       -3.5164275186
 H         -0.6422627408       -4.3019243102       -2.2765599181
 H          2.3695420194       -3.5877826108       -2.0156414286
 H          1.3747094692       -4.4675725400       -0.7836018682
 H          0.8171042699       -1.6144724304       -1.8504316194
 O         -0.4090757797        0.2389388001       -1.5025484102
