  62
        -98.93902407
 C         -2.1066689961       -0.7771456231        0.5042434799
 C         -1.9215251109       -0.0607656989       -0.7006640539
 C         -1.8582384310        1.4065340856       -0.5875416126
 C         -1.9699160612        1.9735960733        0.6257906807
 C         -1.9516366451        3.4394344836        0.9646375241
 C         -3.3735282507        4.0268765145        0.9664259600
 C         -3.8593156417        4.5435343420       -0.3869767355
 H         -4.9095219893        4.8203616767       -0.2707907264
 H         -3.3066012704        5.4493642494       -0.6441037642
 C         -3.7379035957        3.5499015828       -1.5445464184
 H         -4.0573775479        2.5602260114       -1.2132411699
 H         -4.4240801800        3.8664176906       -2.3322954831
 C         -2.3177297087        3.4676553612       -2.1243318739
 H         -2.3590463098        3.6031830387       -3.2071782706
 H         -1.7196700569        4.2897564372       -1.7323080819
 C         -1.5957964336        2.1375368674       -1.8754715604
 H         -1.8685588964        1.4226998365       -2.6588760859
 H         -0.5124361628        2.2832779256       -1.9569094797
 H         -3.4075727882        4.8551493203        1.6769993248
 H         -4.0537686563        3.2536304992        1.3321843541
 H         -1.5401381090        3.5139457731        1.9737567082
 H         -1.2996170762        3.9799672550        0.2848135531
 O         -2.1758170041        1.2453756896        1.7605569602
 C         -2.2170983246       -0.1356010569        1.7350775775
 O         -2.3620940123       -0.6710905046        2.8548763329
 H          0.3321227237       -1.2172769241        0.9271584964
 C          0.3958974128       -2.0355526921        0.2235264686
 C         -0.7525184661       -2.7375965218       -0.1198387861
 C         -0.6391111854       -3.7985270377       -1.0087347441
 C          0.5884743475       -4.1149609889       -1.5654289173
 C          1.7176084932       -3.3765478569       -1.2638226833
 C          1.6177357613       -2.3262877499       -0.3575499401
 N          2.7446431830       -1.5605565285       -0.0063483534
 S          2.5189061868        0.0797527358        0.3319341743
 O          2.0767381218        0.2161221851        1.6986387156
 O          1.6937812612        0.7023313250       -0.6779201707
 C          4.2020913594        0.6547968754        0.1933679096
 C          5.0676364304        0.4266089294        1.2466358032
 C          6.3856910948        0.8388714452        1.1320506923
 C          6.8142558758        1.4687439686       -0.0271962388
 C          5.9337866868        1.6930996605       -1.0747329506
 C          4.6143715176        1.2815585577       -0.9671872667
 H          3.8916128613        1.4395352120       -1.7517145170
 H          6.2683784548        2.1860090660       -1.9732134086
 H          7.8404153785        1.7890672881       -0.1137282102
 H          7.0722131094        0.6682508456        1.9454711779
 H          4.6851821906       -0.0577072979        2.1299583563
 H          3.5203264200       -1.6979157582       -0.6406516955
 H          2.6669586014       -3.6064027420       -1.7230846971
 H          0.6619601769       -4.9367069260       -2.2615831567
 H         -1.5142164665       -4.3671393181       -1.2780644080
 C         -2.0620602171       -2.2943830081        0.4897684480
 H         -2.0800743052       -2.6111102112        1.5436245398
 C         -3.2766165191       -2.8624458333       -0.2146323082
 C         -3.8375106538       -4.1908230143        0.1934170478
 C         -4.5753626220       -2.9308077218        0.5291712023
 H         -5.4870883414       -2.7062157091       -0.0035496345
 H         -4.5739151360       -2.5913969729        1.5550862887
 H         -4.2482786412       -4.8335318054       -0.5705546000
 H         -3.3444485438       -4.7163176073        0.9972531988
 H         -3.3120431320       -2.5873197643       -1.2624778408
 O         -1.8153300011       -0.6215199973       -1.8239145063
