  62
        -98.93909996
 C         -1.4948490973       -1.0903180172        0.1423275906
 C         -2.8206841508       -1.1913943788        0.6280186079
 C         -3.8884272449       -0.5737424062       -0.1812001659
 C         -3.5504618823        0.0515334399       -1.3240667405
 C         -4.4445053950        0.7870710583       -2.2868375852
 C         -4.8612274205        2.1715091633       -1.7661063752
 C         -5.2955499037        2.2017534782       -0.3031349130
 H         -5.4678030908        3.2463767947       -0.0302828026
 H         -4.4771045178        1.8368690907        0.3204819234
 C         -6.5678104196        1.4193636239        0.0146730101
 H         -7.3878564282        1.8087914191       -0.5926576024
 H         -6.8112558292        1.6108857697        1.0628519309
 C         -6.4910895618       -0.0962085006       -0.1843786708
 H         -6.5762622820       -0.3599050899       -1.2351137022
 H         -7.3598913006       -0.5333745050        0.3163544918
 C         -5.2589136041       -0.7569853819        0.4253440753
 H         -5.4236052913       -1.8407381215        0.4566026992
 H         -5.1691424846       -0.4501852502        1.4736658317
 H         -5.6682635842        2.5489121734       -2.3964891070
 H         -4.0061229934        2.8439508536       -1.8733849800
 H         -5.3159736482        0.1842909598       -2.5242573909
 H         -3.8707330095        0.9207174930       -3.2066613795
 O         -2.2593058559        0.1270816575       -1.7537847329
 C         -1.2039569325       -0.4216475641       -1.0465911312
 O         -0.0957596132       -0.2606086882       -1.5910175727
 O         -3.1117348429       -1.7774558252        1.7061192606
 C         -0.3835973791       -1.6883364890        0.9911962283
 C          0.3039472465       -0.5595804446        1.7214062201
 C         -0.2877602389       -0.0341947549        2.8676108902
 C          0.2994308909        1.0179808727        3.5433779353
 C          1.4810376558        1.5740969942        3.0838761144
 C          2.0753782006        1.0632834555        1.9366452272
 C          1.4911283075       -0.0050756265        1.2694898638
 H          1.9576689196       -0.3889176844        0.3799952834
 N          3.2845777988        1.5904721654        1.4543538785
 S          3.4283034417        1.9358632970       -0.1853277079
 O          4.5136195685        2.8953578129       -0.2442310326
 O          2.1707700243        2.3733025689       -0.7427240620
 C          3.9855246384        0.4102145384       -0.9122056391
 C          3.1929640187       -0.2637359515       -1.8196959896
 C          3.6633761767       -1.4527501414       -2.3571085516
 C          4.9064608566       -1.9399657666       -1.9843186148
 C          5.6908143066       -1.2460592329       -1.0747928985
 C          5.2283496571       -0.0584074155       -0.5324470720
 H          5.8062859116        0.5165076074        0.1716954882
 H          6.6568897540       -1.6282494124       -0.7870179306
 H          5.2638039574       -2.8667501627       -2.4051942571
 H          3.0483180578       -1.9925269860       -3.0600006281
 H          2.2178819509        0.1277860484       -2.0671940107
 H          3.6566913106        2.3485883405        2.0090750274
 H          1.9388472974        2.4000065940        3.6075013946
 H         -0.1672011673        1.4136541771        4.4330716760
 H         -1.2194587138       -0.4588465885        3.2143430249
 H         -0.8975280418       -2.3050132332        1.7417569757
 C          0.5648460378       -2.5654254627        0.2022923822
 C          1.5444446038       -3.4275913239        0.9394351340
 C          0.3861833069       -4.0526488043        0.2232899248
 H          0.5765549846       -4.6057409322       -0.6840427759
 H         -0.4246437575       -4.4519148811        0.8150406908
 H          2.5339984809       -3.5488599400        0.5261277981
 H          1.5174786719       -3.3993604639        2.0182261938
 H          0.8886969153       -2.1214498134       -0.7300546078
