  62
        -98.93882259
 C         -2.5814839769       -0.1344908189       -0.4460347031
 C         -2.2470393089       -0.7924992563        0.7604675868
 C         -1.7384034220       -2.1697901867        0.6388951768
 C         -1.6180356132       -2.7224115850       -0.5802082588
 C         -1.1710600744       -4.1137018077       -0.9601783742
 C         -0.0294964810       -4.7538877922       -0.1645722022
 C          1.1040374226       -3.7960085088        0.2289743791
 H          2.0577820765       -4.2296951776       -0.0786461621
 H          0.9977020923       -2.8421763496       -0.2921021117
 C          1.1667390809       -3.5315860252        1.7343467556
 H          2.1650290572       -3.1633726227        1.9819349983
 H          1.0183563456       -4.4716179735        2.2713183086
 C          0.1632386816       -2.4970117780        2.2375209337
 H          0.2816695425       -2.4022054792        3.3198886157
 H          0.3971686324       -1.5237532846        1.7959819480
 C         -1.3103526566       -2.8129312327        1.9269117429
 H         -1.4932221642       -3.8848915657        1.9251029397
 H         -1.9271847153       -2.3562173531        2.7058209932
 H          0.3710191495       -5.5548745971       -0.7891671306
 H         -0.4287087715       -5.2255431913        0.7322645945
 H         -2.0469545678       -4.7692518073       -0.9164244146
 H         -0.8814595142       -4.0379009125       -2.0116902634
 O         -1.9678210823       -2.0532947673       -1.7186649298
 C         -2.4185857785       -0.7464964977       -1.6850128004
 O         -2.6471172873       -0.2493705463       -2.8096563187
 H         -0.3883832735        1.0034054001       -0.6955233546
 C         -0.6023635335        1.8023503097       -0.0008124609
 C         -1.9249184121        2.1352897968        0.2631514664
 C         -2.1809730814        3.1907210428        1.1276462160
 C         -1.1327531578        3.8702288751        1.7265194741
 C          0.1798982861        3.5039039887        1.4961806926
 C          0.4461150063        2.4458609619        0.6314555001
 N          1.7625066800        1.9961328405        0.4367260232
 S          2.1450737576        0.8511049164       -0.7298646635
 O          1.9324680965        1.3889450509       -2.0582730597
 O          1.4786002708       -0.3869067849       -0.4208229273
 C          3.8910272025        0.6838911089       -0.4154040741
 C          4.3005061070       -0.1977324880        0.5666458517
 C          5.6539344980       -0.3172891182        0.8387082087
 C          6.5704489130        0.4440600523        0.1285253694
 C          6.1451560245        1.3229701096       -0.8562495759
 C          4.7925156858        1.4470947989       -1.1327254341
 H          4.4166912083        2.1070283070       -1.8981002431
 H          6.8604238142        1.9101688152       -1.4092414743
 H          7.6234224928        0.3484904758        0.3413107252
 H          5.9880373815       -1.0025369509        1.6009194344
 H          3.5497265480       -0.7729750631        1.0837851065
 H          2.4685080298        2.7109073135        0.5339591945
 H          0.9920100507        4.0183192332        1.9858382124
 H         -1.3439052733        4.6911630907        2.3949963809
 H         -3.1987082895        3.4765525830        1.3383515136
 C         -3.0041240133        1.3230497183       -0.4148408713
 H         -3.0703331273        1.6447416378       -1.4657131501
 C         -4.3648528705        1.4757852235        0.2326113916
 C         -5.2944253646        2.5666120700       -0.2048898204
 C         -5.5860031363        1.1426659186       -0.5688597208
 H         -6.4043280139        0.6386614441       -0.0772198290
 H         -5.4334867380        0.8319091714       -1.5926368390
 H         -5.9186698257        3.0408880130        0.5372816138
 H         -4.9561969277        3.2281317970       -0.9883128798
 H         -4.3582141177        1.1924696236        1.2787331811
 O         -2.3743251280       -0.2581867667        1.8933913670
