  62
        -98.93340422
 C         -1.8608678277       -1.3993830552        0.3847648592
 C         -2.3952486108       -0.6828023265       -0.7140809528
 C         -3.6400145563        0.0634950009       -0.4538547474
 C         -4.1773238409        0.0459308257        0.7784886845
 C         -5.3954579164        0.8099331207        1.2135083885
 C         -5.0334278016        2.2907090019        1.4463550424
 C         -5.7032893819        3.2635882356        0.4757255513
 H         -6.7493216752        3.3879608667        0.7635796173
 H         -5.2122002530        4.2320862875        0.5927743810
 C         -5.6687670647        2.8623592428       -1.0022420201
 H         -6.4458390090        2.1224873426       -1.2000357793
 H         -5.9323673955        3.7516641705       -1.5786874603
 C         -4.3306196272        2.3192697817       -1.5206495600
 H         -3.5039905827        2.6818845879       -0.9087868178
 H         -4.1727588207        2.7107040622       -2.5277380818
 C         -4.2565159923        0.7840328899       -1.6208428214
 H         -5.2554113178        0.3823129601       -1.8128777123
 H         -3.6258633340        0.5220929206       -2.4757523509
 H         -5.3089107281        2.5777780874        2.4623396202
 H         -3.9483961120        2.3939655974        1.3748408776
 H         -6.1746780936        0.7200377537        0.4600006997
 H         -5.7501225606        0.3561848526        2.1392749560
 O         -3.6113910336       -0.6203595640        1.8187807871
 C         -2.4407450334       -1.3425983497        1.6540235605
 O         -2.0160164215       -1.8731488305        2.7000368236
 H          0.3489947964        0.1620347803        0.9652931231
 C          0.8329038516       -0.1821361432        0.0586526041
 C          0.4660809343       -1.4124829928       -0.4748774923
 C          1.0951627300       -1.8443871784       -1.6341609376
 C          2.0465807419       -1.0507831223       -2.2521613874
 C          2.3950789390        0.1801214094       -1.7291785832
 C          1.7783206096        0.6176654807       -0.5633703290
 N          2.1314158925        1.8638630045       -0.0175106633
 S          3.7569432339        2.2498872596        0.0710691859
 O          3.8656888210        3.1723035720        1.1798683391
 O          4.2102754649        2.7451534082       -1.2046333958
 C          4.5823388808        0.7141592574        0.4502202572
 C          4.2525082567        0.0737898007        1.6284039255
 C          4.8560148365       -1.1371887724        1.9250252533
 C          5.7746109318       -1.6847627610        1.0422420442
 C          6.0991116179       -1.0270604023       -0.1338400670
 C          5.4968222208        0.1837782276       -0.4365135842
 H          5.7180699520        0.7275386951       -1.3403694241
 H          6.8152238774       -1.4542714643       -0.8170669933
 H          6.2400115804       -2.6294450053        1.2750676733
 H          4.6046833891       -1.6496591696        2.8398634314
 H          3.5386706526        0.5286642809        2.2967277046
 H          1.6532849127        2.0877558141        0.8422438055
 H          3.1189495593        0.8170847471       -2.2110662719
 H          2.5182617725       -1.3932441874       -3.1604494927
 H          0.8209918632       -2.7896801075       -2.0718858561
 C         -0.5813817543       -2.2100771486        0.2632292865
 H         -0.2312198049       -2.3378539692        1.3011174711
 C         -0.7811070438       -3.6107189819       -0.2965949746
 C         -2.0834261969       -4.3325880628       -0.1242092992
 C         -1.6490241075       -3.8856736505       -1.4861666618
 H         -1.3272737612       -4.6379896293       -2.1915430535
 H         -2.1536185182       -3.0484403246       -1.9410314029
 H         -2.0581250941       -5.3870262575        0.1066052072
 H         -2.8918037330       -3.8009692268        0.3570207717
 H          0.1153315597       -4.2149888753       -0.1978721757
 O         -1.8735403144       -0.6599844731       -1.8578665607
