  62
        -98.94254696
 C          1.5040263315        1.4126618768        0.2753225223
 C          1.9848874700        0.9124878319       -0.9596863229
 C          2.8772284284       -0.2541265582       -0.8703231953
 C          3.2042130249       -0.7486501869        0.3373688584
 C          4.0476897026       -1.9693618989        0.5635738618
 C          3.1799809277       -3.2322775852        0.6572096895
 C          2.1503468490       -3.3586305166       -0.4659168929
 H          1.6086462335       -4.2941444003       -0.3098800279
 H          1.4226574916       -2.5479481299       -0.3769655503
 C          2.7524255968       -3.3505037306       -1.8784326543
 H          2.2812476465       -4.1424719429       -2.4646785600
 H          3.8181714285       -3.5764650468       -1.8275840328
 C          2.5510508528       -2.0459051336       -2.6520366726
 H          2.8249567015       -2.2245086819       -3.6953362020
 H          1.4930656247       -1.7693776163       -2.6379671437
 C          3.3691904181       -0.8443041096       -2.1617632755
 H          4.4223235350       -1.1218746952       -2.0866382496
 H          3.2749167274       -0.0514167431       -2.9097846445
 H          2.6487900464       -3.2134304356        1.6109626548
 H          3.8357400704       -4.1046518887        0.6504289985
 H          4.7639704037       -2.0663466575       -0.2498658289
 H          4.5921717997       -1.8429912450        1.5007154147
 O          2.7575497809       -0.2143197862        1.5015474894
 C          1.8927996231        0.8684474485        1.5004126201
 O          1.5494024447        1.2530431167        2.6348682349
 H         -0.4103385711        0.1790118690       -0.6142316968
 C         -1.1417832400        0.9730864763       -0.6905367944
 C         -0.8111186368        2.2550845058       -0.2799603757
 C         -1.7828241960        3.2468126751       -0.3879906720
 C         -3.0425496475        2.9590286363       -0.8808851623
 C         -3.3644703981        1.6760892598       -1.2902138823
 C         -2.3987081331        0.6864858622       -1.2054217352
 N         -2.7304836141       -0.6350886976       -1.6039025336
 S         -3.5131942554       -1.5062745573       -0.4041817782
 O         -3.6669477624       -2.8490593406       -0.9143189935
 O         -4.7212282914       -0.8053844688       -0.0551139900
 C         -2.3697831566       -1.4965697453        0.9640196077
 C         -2.3541029114       -0.4089195000        1.8150344459
 C         -1.3877528228       -0.3497931327        2.8061771135
 C         -0.4591082947       -1.3716402865        2.9286038219
 C         -0.4916070677       -2.4587264796        2.0690759036
 C         -1.4488807867       -2.5194166394        1.0691131897
 H         -1.5039589319       -3.3442299339        0.3761753041
 H          0.2295825701       -3.2542779629        2.1693851222
 H          0.3018263598       -1.3049320820        3.6902505968
 H         -1.3415234840        0.4994203349        3.4684270570
 H         -3.0941608311        0.3653133182        1.6903624105
 H         -1.9249668907       -1.1649164068       -1.9079123076
 H         -4.3440603751        1.4249837376       -1.6621337911
 H         -3.7834072366        3.7408210961       -0.9473535333
 H         -1.5463673351        4.2514847872       -0.0755120852
 C          0.5382633917        2.5768689242        0.3230226532
 H          0.3783302510        2.7883896216        1.3908891891
 C          1.1456456512        3.8107716374       -0.3242891855
 C          0.9631536018        5.1663464995        0.2869776794
 C          2.2978870932        4.4892175305        0.3523486779
 H          3.1056165350        4.8660809109       -0.2566956673
 H          2.6191177779        4.0864349498        1.3024042899
 H          0.8508534518        6.0158358142       -0.3696369282
 H          0.3974484077        5.2365865857        1.2041377212
 H          1.1785659425        3.7398672094       -1.4049465166
 O          1.6771468229        1.3951205642       -2.0811077531
