  62
        -98.94755865
 C          0.8119044003        1.1512262304        0.5972507897
 C          1.2801211407        0.7697243409       -0.6832019203
 C          2.2017136405       -0.3726796992       -0.7060230405
 C          2.5074250001       -1.0088079797        0.4388578293
 C          3.4694517399       -2.1566958499        0.5814106191
 C          4.9357937199       -1.7173014802        0.7022565897
 C          5.5726811104       -1.2196108197       -0.5961147699
 H          6.6489164903       -1.1599516199       -0.4218794196
 H          5.4111728905       -1.9555338994       -1.3842742303
 C          5.0736619007        0.1547181006       -1.0637054995
 H          5.9268380108        0.7688027106       -1.3612366990
 H          4.5856762005        0.6685379803       -0.2320920794
 C          4.1116330210        0.1120820112       -2.2512883698
 H          3.8008040412        1.1357250813       -2.4747874794
 H          4.6300235012       -0.2812557585       -3.1285105498
 C          2.8471987508       -0.7243796887       -2.0120606705
 H          2.1316916011       -0.4977463783       -2.8059087706
 H          3.0860724607       -1.7864753888       -2.0461466509
 H          5.5072140197       -2.5798548904        1.0528862595
 H          5.0080303998       -0.9394094505        1.4659059000
 H          3.1934204996       -2.6875744403        1.4941481188
 H          3.3669960100       -2.8329814696       -0.2663422812
 O          1.9594989898       -0.6677292702        1.6363692093
 C          1.1220256799        0.4301057499        1.7488403695
 O          0.7213135596        0.6551131395        2.9103438495
 H         -1.5926205097        0.2426069308        0.4292836887
 C         -1.9630019695        1.0654499811       -0.1649412411
 C         -1.2845783893        2.2769285910       -0.1359126704
 C         -1.7782111189        3.3337527814       -0.8899743101
 C         -2.9147508287        3.1690210819       -1.6624229604
 C         -3.5844889389        1.9601391620       -1.6916148611
 C         -3.1017691093        0.8976363516       -0.9348085114
 N         -3.7345082294       -0.3510061083       -0.9678930121
 S         -3.6354648999       -1.4137831088        0.3102332374
 O         -4.6704464800       -2.3896522986        0.0388164767
 O         -3.7313006802       -0.7390624094        1.5841677577
 C         -2.0504514400       -2.2021512490        0.1307851075
 C         -1.6415969097       -2.5948244185       -1.1278828725
 C         -0.4396542597       -3.2705418386       -1.2591636125
 C          0.3224772599       -3.5503021492       -0.1357083024
 C         -0.0980899604       -3.1433794197        1.1203910977
 C         -1.2954828003       -2.4603564996        1.2572100476
 H         -1.6500682306       -2.1131507199        2.2156473777
 H          0.4992437793       -3.3481682901        1.9946136778
 H          1.2484159099       -4.0929674593       -0.2366869523
 H         -0.1026707295       -3.5803753582       -2.2351426925
 H         -2.2628943494       -2.3664979681       -1.9777679626
 H         -4.6157997893       -0.3906744180       -1.4568623124
 H         -4.4693599688        1.8330127124       -2.2961912814
 H         -3.2860895785        3.9957596922       -2.2488701702
 H         -1.2716913088        4.2848246513       -0.8775826395
 C         -0.0611440395        2.3836020105        0.7405809200
 H         -0.3975924398        2.4018027001        1.7884438599
 C          0.7654654707        3.6253318405        0.4704427008
 C          0.4604082907        4.9113624902        1.1759599812
 C          1.6840996405        4.1277014699        1.5418992212
 H          2.6510280606        4.5133428199        1.2552834417
 H          1.6887918202        3.5909826795        2.4799056410
 H         -0.3635727995        4.9161045501        1.8736179910
 H          0.5905379610        5.8389791804        0.6391002017
 H          1.1188469810        3.6724175909       -0.5534524291
 O          0.9604226010        1.3597844214       -1.7470593201
