  62
        -98.93340192
 C         -2.1136113089        1.2464037838        0.1516903617
 C         -2.4299393448        0.0039209460        0.7543653211
 C         -3.8486791111       -0.3884559182        0.6965668804
 C         -4.7452960233        0.4359779447        0.1271827711
 C         -6.2072531851        0.1381026419       -0.0347012513
 C         -6.4895102802       -0.5478621269       -1.3786947678
 C         -5.5682987079       -1.7316515158       -1.6734458780
 H         -5.8793285960       -2.1551460160       -2.6308829719
 H         -4.5466324768       -1.3661685263       -1.8000703848
 C         -5.5823996976       -2.8294489840       -0.6005934583
 H         -6.4726929192       -2.7287798683        0.0212258063
 H         -5.6406987655       -3.8014908079       -1.0948534656
 C         -4.3413059329       -2.8587111205        0.2936084682
 H         -4.3531333389       -3.7931579138        0.8611192420
 H         -3.4412898221       -2.8648208678       -0.3267399217
 C         -4.2202391661       -1.7116119747        1.3047712633
 H         -5.1453623431       -1.6271324940        1.8786713600
 H         -3.4091230753       -1.9615693219        1.9950938415
 H         -6.3658650420        0.1887872849       -2.1757713362
 H         -7.5283418303       -0.8827257496       -1.3835660934
 H         -6.5360289331       -0.4968153375        0.7856747446
 H         -6.7561419501        1.0804930227        0.0045707063
 O         -4.4065039277        1.6331980602       -0.4162114263
 C         -3.0902874628        2.0582123094       -0.4299310000
 O         -2.9147498504        3.1640114047       -0.9814808529
 H          1.0974618680       -0.0521985837        1.3725249283
 C          1.0547553167       -0.1015613972        0.3006666420
 C          0.2338393355        0.7344359704       -0.4394154144
 C          0.2029870419        0.5602261812       -1.8246841950
 C          0.9619745811       -0.4097676054       -2.4480066144
 C          1.8016027020       -1.2202762840       -1.7037986673
 C          1.8427839936       -1.0589527993       -0.3264644078
 N          2.7048379612       -1.8451583167        0.4704108390
 S          3.9672999958       -1.0295615582        1.2062183381
 O          4.8070001074       -2.0532968225        1.7862091655
 O          3.4470627952       -0.0323255807        2.1029999961
 C          4.8210815273       -0.2424541489       -0.1496412843
 C          5.9041853314       -0.8802121359       -0.7220946629
 C          6.5175681078       -0.3042077089       -1.8229703178
 C          6.0312567736        0.8879313988       -2.3379119978
 C          4.9404194329        1.5141986801       -1.7545152780
 C          4.3264524869        0.9462306632       -0.6493906077
 H          3.4783506047        1.4077983588       -0.1694657658
 H          4.5609268094        2.4404262724       -2.1551601536
 H          6.5051496046        1.3333957522       -3.1983205623
 H          7.3679896270       -0.7870416264       -2.2768557635
 H          6.2490989161       -1.8042065218       -0.2865279825
 H          3.0687584456       -2.6575800174       -0.0081611797
 H          2.4083175177       -1.9746873794       -2.1820419787
 H          0.9095076210       -0.5285266352       -3.5194756319
 H         -0.4473986535        1.1961109857       -2.4103880775
 C         -0.6875906118        1.7896081965        0.1166722697
 H         -0.7205820596        2.5945789040       -0.6349238193
 C         -0.3785772297        2.4942089102        1.4315966876
 C         -0.1997492243        1.8257187090        2.7600397022
 C          0.9491640238        2.5513983010        2.1247122770
 H          1.2477403575        3.4966812173        2.5545436664
 H          1.7756632076        1.9675701807        1.7525969555
 H         -0.6820311053        2.2730500440        3.6181511226
 H         -0.1900846772        0.7479608550        2.7927960174
 H         -0.9554945782        3.4166206037        1.4694329691
 O         -1.5919960462       -0.7490043981        1.3115147450
