  62
        -98.93989898
 C         -1.8552199093       -0.6019511402        0.0036884951
 C         -2.3779450053        0.7027670716        0.1990636986
 C         -3.7824738231        0.9054984285       -0.1705597201
 C         -4.4880797351       -0.1170681617       -0.6859687031
 C         -5.9248163550       -0.0688738341       -1.1303690575
 C         -6.9364294177       -0.2617182616        0.0077115642
 C         -7.0754357007        0.9241102744        0.9632787319
 H         -7.2541537451        1.8335159220        0.3887212805
 H         -7.9640159444        0.7430843900        1.5713546220
 C         -5.8739140428        1.1307191318        1.8961703212
 H         -6.2286961502        1.3026547140        2.9148991891
 H         -5.2681458048        0.2218726209        1.9175253272
 C         -4.9776532249        2.3120324111        1.5240224812
 H         -5.5374845432        3.2443224332        1.6270766043
 H         -4.1406722547        2.3429847480        2.2264347559
 C         -4.3998302453        2.2433630208        0.1043192552
 H         -5.1759800165        2.4621965095       -0.6289615157
 H         -3.6128139654        2.9967065174        0.0169691205
 H         -6.6600706164       -1.1546334722        0.5730968191
 H         -7.9106228400       -0.4468284955       -0.4506000627
 H         -6.1201056473        0.8771324395       -1.6362139424
 H         -6.0555083785       -0.8812604366       -1.8484012930
 O         -3.9470655273       -1.3461152402       -0.8831240350
 C         -2.6289698305       -1.6295583723       -0.5384514985
 O         -2.3000677691       -2.8068081473       -0.7688750877
 H          1.6486506055        0.9319200658        0.2417202449
 C          1.5318869341        0.3507285157       -0.6605048663
 C          0.5128923503       -0.5859651712       -0.7561743695
 C          0.3512108710       -1.2846485703       -1.9497610464
 C          1.1963952071       -1.0489467741       -3.0177839079
 C          2.2179127407       -0.1204771675       -2.9171732906
 C          2.3808252697        0.5908097063       -1.7340063707
 N          3.3917953160        1.5507867820       -1.6216200324
 S          4.0980091388        1.9338099840       -0.1643407568
 O          3.2141431064        2.7441315350        0.6349690504
 O          5.3553512111        2.5482599986       -0.5340343169
 C          4.4130763922        0.3815115669        0.6577218472
 C          4.0649459274        0.2397928933        1.9854896065
 C          4.3444783324       -0.9553717161        2.6300147185
 C          4.9600654935       -1.9857660669        1.9365850353
 C          5.3026755218       -1.8286801932        0.6023824191
 C          5.0320011915       -0.6338700934       -0.0446880359
 H          5.2963239682       -0.4814850641       -1.0781866670
 H          5.7786532284       -2.6329376865        0.0651840668
 H          5.1699758884       -2.9167673720        2.4384354967
 H          4.0747126517       -1.0788325283        3.6665772238
 H          3.5761054695        1.0618748854        2.4841270396
 H          4.0311068654        1.6116126837       -2.3989960829
 H          2.8751066243        0.0651255944       -3.7528552710
 H          1.0610813500       -1.5963638166       -3.9383520245
 H         -0.4451800530       -2.0090908894       -2.0275468452
 C         -0.4088680701       -0.8220158780        0.4126789378
 H         -0.2063456867       -0.0293446884        1.1509086271
 C         -0.1756257445       -2.1587954455        1.1038830306
 C          0.6868022869       -3.2472148914        0.5450666574
 C          1.1605193453       -2.4502705959        1.7203342306
 H          1.1920726783       -2.9207687705        2.6910458647
 H          1.9475621669       -1.7306745533        1.5502319874
 H          0.3629251090       -4.2648012748        0.7005722465
 H          1.1663237192       -3.0842771152       -0.4065979021
 H         -1.0486765970       -2.4821185661        1.6613327507
 O         -1.6990250302        1.6548665188        0.6705829716
