  62
        -98.93322347
 C         -1.7489675767       -1.3884977879        0.4433603557
 C         -1.5856490244       -0.2354086395       -0.3631923373
 C         -2.8195125683        0.3449781410       -0.9297134413
 C         -4.0074506652       -0.2211136670       -0.6620418655
 C         -5.3733252096        0.1751816449       -1.1638464274
 C         -5.7161204610        1.6714869956       -1.1751842884
 C         -5.0691071522        2.4956047260       -0.0523667051
 H         -4.6337578524        1.8329331084        0.6977152514
 H         -5.8413750244        3.0859891026        0.4443456180
 C         -3.9967375657        3.4621669687       -0.5617039448
 H         -3.8484593926        4.2475616683        0.1834836034
 H         -4.3619886115        3.9417312076       -1.4726175533
 C         -2.6283689796        2.8403842181       -0.8395313057
 H         -2.1451767576        2.5646976358        0.1025556288
 H         -1.9982433440        3.6039370540       -1.3028733382
 C         -2.6383627690        1.5952666528       -1.7412766134
 H         -1.6532501658        1.5163446806       -2.2091687716
 H         -3.3888773823        1.6813036068       -2.5235180524
 H         -6.8022922174        1.7465906847       -1.1011692870
 H         -5.4371384853        2.1027291142       -2.1355939687
 H         -5.4952132915       -0.2270787914       -2.1736896928
 H         -6.0770284533       -0.3562384568       -0.5186777452
 O         -4.1203007195       -1.3230517271        0.1322906145
 C         -3.0140719898       -1.9149623211        0.7153196647
 O         -3.2846431867       -2.8888339095        1.4463771234
 H          1.8995046112       -1.0021472892        0.5087901049
 C          1.4924812091       -0.6220280820        1.4312372454
 C          0.2493021570       -1.0508905362        1.8714595363
 C         -0.2639715443       -0.5204769946        3.0521138425
 C          0.4543142787        0.4037687719        3.7852330701
 C          1.6976187414        0.8229728816        3.3464359415
 C          2.2124520890        0.3153011675        2.1606598202
 N          3.4815778894        0.7216757992        1.6962518893
 S          3.5344810966        1.6082169413        0.2627803280
 O          4.7970036505        2.3181086551        0.3370133920
 O          2.3608720930        2.4354769102        0.1125567375
 C          3.6494019414        0.3957707236       -1.0322767232
 C          2.5711786047        0.1611108354       -1.8607971818
 C          2.7155486278       -0.7549743511       -2.8922316977
 C          3.9192665348       -1.4197121456       -3.0683098487
 C          4.9883909073       -1.1785771836       -2.2179945080
 C          4.8563245397       -0.2576447464       -1.1920327360
 H          5.6653167056       -0.0229600813       -0.5204219234
 H          5.9215874580       -1.7006819703       -2.3556411326
 H          4.0227670909       -2.1309480232       -3.8729661821
 H          1.8826880479       -0.9469387338       -3.5501637401
 H          1.6405288408        0.6726881164       -1.6721797261
 H          4.0137115551        1.2242642633        2.3944379549
 H          2.2650035961        1.5464238646        3.9136622839
 H          0.0449862655        0.8022151109        4.7015724823
 H         -1.2390963901       -0.8468661504        3.3888805792
 C         -0.5769190012       -2.0715067929        1.1289664147
 H         -1.0423522340       -2.7269726488        1.8833781663
 C          0.2516252141       -2.9773801899        0.2314002780
 C         -0.4272474764       -3.8746644151       -0.7599457257
 C          0.4332014408       -2.7450558985       -1.2360055348
 H          1.3940674671       -2.9799660596       -1.6696675331
 H         -0.0436698495       -1.8828763382       -1.6725727879
 H         -1.4991657033       -3.7797692712       -0.8591428213
 H         -0.0655512908       -4.8852573268       -0.8740748233
 H          1.0972148569       -3.4012842793        0.7645189000
 O         -0.4743214734        0.2884946654       -0.6260223055
