  62
        -98.94360252
 C         -1.7266930378       -1.2652167284        0.0506372783
 C         -1.8514539807       -0.0028848116       -0.5786010731
 C         -3.2239532079        0.4134140609       -0.9030936683
 C         -4.2495013537       -0.4078707450       -0.6131899174
 C         -5.6976267784       -0.0832708070       -0.8371363046
 C         -6.3157722395        0.5779235991        0.4028309652
 C         -5.4892583969        1.7361091348        0.9620118580
 H         -6.0364618693        2.1435928530        1.8149526427
 H         -4.5425007744        1.3473674320        1.3442611307
 C         -5.2046740508        2.8578574425       -0.0465148930
 H         -5.9003575900        2.7882031103       -0.8835514581
 H         -5.3799594760        3.8191726710        0.4411232076
 C         -3.7708527203        2.8830590495       -0.5794706935
 H         -3.0680521255        2.8571163108        0.2572859172
 H         -3.6209073504        3.8303886817       -1.1041089078
 C         -3.4011843413        1.7567673213       -1.5529153156
 H         -4.1411941065        1.7044707987       -2.3539796443
 H         -2.4312365329        2.0044152536       -1.9935670312
 H         -7.3147125229        0.9332564254        0.1432357158
 H         -6.4172288094       -0.1788110385        1.1843380984
 H         -5.7882488429        0.5771027153       -1.6972783126
 H         -6.2305014320       -1.0124912118       -1.0457008773
 O         -4.0858314799       -1.6228505634       -0.0286242179
 C         -2.8265307065       -2.0744909145        0.3315897709
 O         -2.8183388460       -3.1923724321        0.8868813000
 H          2.1541373365       -0.6405472986        0.3124513524
 C          1.5803158742       -0.2882166176        1.1512176504
 C          0.3042376516       -0.7777914617        1.3735420485
 C         -0.3997596537       -0.3257833966        2.4871618167
 C          0.1568351267        0.6052340899        3.3419289395
 C          1.4237159922        1.1093880832        3.1035485521
 C          2.1371976605        0.6611894884        1.9983300211
 N          3.3958920513        1.1906227763        1.7066635754
 S          4.5045830589        0.4522683692        0.7131715059
 O          4.6649788320       -0.9474256279        1.0333753279
 O          5.6944123099        1.2652076386        0.8499175646
 C          3.8467359019        0.6299160431       -0.9323060081
 C          4.0317646539       -0.3997454704       -1.8336955357
 C          3.5268335759       -0.2681293602       -3.1170977778
 C          2.8501509068        0.8874295160       -3.4755827958
 C          2.6789010037        1.9149177886       -2.5610539601
 C          3.1830951748        1.7899415205       -1.2767344259
 H          3.0552963549        2.5669258406       -0.5416731191
 H          2.1456046615        2.8088747107       -2.8414150724
 H          2.4497122719        0.9856380572       -4.4724259991
 H          3.6573323931       -1.0670358007       -3.8298217506
 H          4.5533424703       -1.2858419378       -1.5071379403
 H          3.7967896706        1.8207324259        2.3827725397
 H          1.8533486939        1.8473000244        3.7634466006
 H         -0.4009032388        0.9467871770        4.2012122329
 H         -1.3938262730       -0.7126505058        2.6686149696
 C         -0.3519543871       -1.7726009645        0.4476278056
 H         -0.5174204567       -2.7058604451        1.0056375021
 C          0.4649676947       -2.0804111420       -0.7901231163
 C          1.5504317376       -3.1116605098       -0.7408251304
 C          0.2758961979       -3.3992813994       -1.4745981549
 H          0.2965284322       -3.4280042313       -2.5534698819
 H         -0.4265327846       -4.0911982432       -1.0325813995
 H          1.7228940699       -3.6130096719        0.1997391279
 H          2.4482177427       -2.9424882115       -1.3156597728
 H          0.6163035614       -1.2087374228       -1.4172161939
 O         -0.8730696967        0.7374516265       -0.8549778143
