  62
        -98.93944371
 C          2.2342633198        1.0472083014       -0.4796475904
 C          3.3532003800        0.6926334017        0.3194862294
 C          4.0256187903       -0.5692588081       -0.0088463407
 C          3.5591265103       -1.3099986783       -1.0301488206
 C          4.1048044306       -2.6469342781       -1.4396976406
 C          3.3809500810       -3.7882418883       -0.7118911105
 C          3.2812862312       -3.5918851383        0.8010249296
 H          2.6347695610       -2.7349047184        1.0057782796
 H          2.7827029915       -4.4732113784        1.2103419297
 C          4.6299514213       -3.3920053179        1.5067589193
 H          4.6483908016       -4.0095637379        2.4070829093
 H          5.4396359512       -3.7346557777        0.8615900792
 C          4.9070268710       -1.9534595078        1.9470216692
 H          4.0537059110       -1.5729776880        2.5141033894
 H          5.7694801411       -1.9632199576        2.6186974691
 C          5.2167613805       -0.9601075678        0.8203460392
 H          5.5748784804       -0.0353319177        1.2819626891
 H          6.0111160505       -1.3587629576        0.1860907290
 H          2.3674627509       -3.8658801386       -1.1132317703
 H          3.9050889912       -4.7214109682       -0.9265146505
 H          3.9588214704       -2.7629490082       -2.5149473406
 H          5.1704660206       -2.6799455779       -1.2208313508
 O          2.4971392001       -0.9354308186       -1.7858502104
 C          1.8014505098        0.2424027313       -1.5346223203
 O          0.8580081196        0.4331699310       -2.3269751101
 O          3.7771836800        1.4128088619        1.2636640093
 C          1.5448717195        2.3492946612       -0.1155737403
 C          0.4027119297        2.1331882510        0.8499678499
 C          0.3108314097        2.8943437310        2.0096521399
 C         -0.7540155601        2.7305903407        2.8770851301
 C         -1.7498901299        1.8137830105        2.5976949403
 C         -1.6616196099        1.0375572105        1.4459707103
 C         -0.5872475201        1.1978180407        0.5823343301
 H         -0.5355288801        0.5935700007       -0.3111639999
 N         -2.6408193797        0.0729385402        1.1697470805
 S         -3.0005398999       -0.3250155599       -0.4308575595
 O         -2.1123230997       -1.3781235197       -0.8536049296
 O         -3.0472978203        0.8698496600       -1.2411813395
 C         -4.6504404797       -0.9745067804       -0.2263231992
 C         -4.8201471693       -2.3128286404        0.0729297609
 C         -6.1041742191       -2.8004331607        0.2597602711
 C         -7.1912276093       -1.9466142710        0.1466915213
 C         -7.0060822097       -0.6059988710       -0.1565207288
 C         -5.7247900799       -0.1123913306       -0.3442415290
 H         -5.5324431702        0.9188873794       -0.5931758691
 H         -7.8528875499        0.0548644088       -0.2481553586
 H         -8.1891434092       -2.3289553113        0.2920732115
 H         -6.2517201488       -3.8429083208        0.4914065512
 H         -3.9456460291       -2.9389025402        0.1414389508
 H         -3.4712035196        0.1721724000        1.7370948506
 H         -2.5860242897        1.6883843303        3.2684842004
 H         -0.8131640101        3.3270674607        3.7746121001
 H          1.0879223096        3.6102427512        2.2324957897
 H          2.3105687194        2.9423997915        0.4048031295
 C          1.0489486491        3.1488620411       -1.3046256403
 C          0.9571326387        4.6402395311       -1.1940003203
 C          2.0084223987        4.0156251813       -2.0605992704
 H          1.9058080085        4.0788891112       -3.1333331804
 H          3.0326828888        4.0395256516       -1.7176521606
 H          0.1267301085        5.1382441208       -1.6703593702
 H          1.2722162188        5.0954904612       -0.2674127703
 H          0.2822859191        2.6376511309       -1.8736678401
