  62
        -98.93988310
 C         -2.6393223017       -0.1931911690        0.5361811150
 C         -2.1615335891        0.2522933121       -0.7226344352
 C         -1.9654405242        1.7040554104       -0.8590321549
 C         -2.2206209858        2.5096932148        0.1863533397
 C         -2.0655745768        4.0025929772        0.1826436018
 C         -0.6764113830        4.4357078719        0.6677890950
 C          0.4816897758        3.7078685770       -0.0157925154
 H          1.4067573396        4.1497565652        0.3624261909
 H          0.4876776260        2.6584092271        0.2877675012
 C          0.4734217380        3.7873728235       -1.5483816805
 H         -0.1499637027        4.6215084197       -1.8750689061
 H          1.4913343682        3.9868828991       -1.8902485672
 C          0.0167282762        2.5060724219       -2.2499945864
 H          0.5553012436        1.6474049946       -1.8374193974
 H          0.2897831485        2.5815407945       -3.3066370542
 C         -1.4879253098        2.2113866475       -2.1898534230
 H         -2.0495318091        3.0996762055       -2.4895867838
 H         -1.6966730026        1.4121294338       -2.9073335853
 H         -0.5779991284        5.5108417643        0.5036787993
 H         -0.6096698071        4.2473003103        1.7417995251
 H         -2.2401869298        4.3732864271       -0.8257432989
 H         -2.8193426196        4.4238665099        0.8507032987
 O         -2.6398447511        2.0433182865        1.3912716125
 C         -2.8241274280        0.6872629722        1.6035195728
 O         -3.1532897569        0.3934214358        2.7717829484
 H         -0.3448880382       -1.1714614292        1.5251233420
 C         -0.3847577633       -1.9886482465        0.8132166430
 C         -1.6194292279       -2.4182226156        0.3423068393
 C         -1.6466855369       -3.4574391376       -0.5774551393
 C         -0.4675085527       -4.0179412321       -1.0390007443
 C          0.7601800321       -3.5499351613       -0.6049530182
 C          0.7934186056       -2.5308713794        0.3336585850
 N          2.0542956879       -1.9854472980        0.7386824601
 S          2.2650109091       -0.4648344997        0.0184265397
 O          1.5531938057        0.5478950431        0.7719332821
 O          1.9510376528       -0.5827497891       -1.3814147143
 C          4.0228560734       -0.2373428771        0.2138212257
 C          4.5119743207        0.7090869767        1.0918651663
 C          5.8844962835        0.8414017567        1.2383395770
 C          6.7379597513        0.0263362472        0.5110656261
 C          6.2309643288       -0.9209060893       -0.3666531038
 C          4.8607609152       -1.0561781007       -0.5185691190
 H          4.4186079599       -1.7710178055       -1.1924019008
 H          6.8978908491       -1.5522083269       -0.9313369168
 H          7.8050750426        0.1309288754        0.6277412791
 H          6.2806124372        1.5783620136        1.9183678932
 H          3.8101328017        1.3228017288        1.6337818589
 H          2.0808337440       -1.8349335568        1.7400812587
 H          1.6843258902       -3.9495956094       -0.9888648055
 H         -0.5067410313       -4.8136155063       -1.7673878828
 H         -2.5915680819       -3.8021852369       -0.9651196485
 C         -2.8349331412       -1.6727487244        0.8346872577
 H         -2.8492398067       -1.7379275270        1.9358484302
 C         -4.1528795140       -2.2554097293        0.3498604027
 C         -5.3670188482       -1.3888990685        0.2010537572
 C         -4.7082534570       -1.9704733697       -1.0118046175
 H         -5.2149046123       -2.7694557195       -1.5332838303
 H         -4.1401460226       -1.3187793903       -1.6558643347
 H         -5.2504135691       -0.3313140374        0.3901033950
 H         -6.3217432165       -1.7860582009        0.5115063562
 H         -4.3218525984       -3.2520462549        0.7461622342
 O         -1.9284841571       -0.5104171762       -1.6953868350
