  62
        -98.94418160
 C          1.8463160205        0.0144473400        0.3114321604
 C          2.9255725303        0.5765162195        1.0341226711
 C          4.2548653604        0.0301754698        0.7322400709
 C          4.3687178506       -0.9574803594       -0.1746978099
 C          5.6668117208       -1.5677578089       -0.6163644102
 C          6.2392808110       -0.8333572378       -1.8368702194
 C          6.2804635809        0.6868360620       -1.6805138981
 H          6.7294498811        1.0945730129       -2.5888468876
 H          5.2576889609        1.0673326119       -1.6293172080
 C          7.0659980306        1.1785017510       -0.4566896875
 H          7.7052691306        2.0095433513       -0.7620508366
 H          7.7190218306        0.3846358807       -0.0923693580
 C          6.1948918403        1.6861076199        0.6938158428
 H          5.4747413804        2.4149951702        0.3137170933
 H          6.8413422801        2.2054908193        1.4061998034
 C          5.4266365902        0.6111096092        1.4727300517
 H          6.1136782502       -0.1768851710        1.7875367411
 H          5.0106854300        1.0830609984        2.3676846820
 H          7.2466944611       -1.2093834376       -2.0245332495
 H          5.6204439812       -1.0713542271       -2.7052339198
 H          6.3773717106       -1.5337297396        0.2072474700
 H          5.4833235809       -2.6098084287       -0.8836361311
 O          3.3060153608       -1.4866430289       -0.8340758106
 C          2.0200715007       -1.0119814591       -0.6166483805
 O          1.1418676209       -1.5791130586       -1.2943251512
 O          2.7821114301        1.4866995087        1.8941898319
 C          0.4461995104        0.5459087997        0.5563532205
 C         -0.4775472096       -0.5693630207        0.9764527593
 C         -0.0619020898       -1.4510714515        1.9713493686
 C         -0.8722991598       -2.4943653919        2.3730699675
 C         -2.1196952197       -2.6745134215        1.8019842071
 C         -2.5533054995       -1.7884718606        0.8226601678
 C         -1.7365880595       -0.7386383402        0.4220808189
 H         -2.0816851494       -0.0790498996       -0.3556712606
 N         -3.8300486294       -1.9232830402        0.2762537574
 S         -4.4456009792       -1.0264541292       -0.9746637120
 O         -5.7613741091       -1.5912298290       -1.1898450128
 O         -3.5788324089       -1.0059457881       -2.1292238517
 C         -4.6148845394        0.6189563402       -0.3101566006
 C         -4.4941409393        1.6921740510       -1.1703422596
 C         -4.6592287795        2.9757703406       -0.6741807685
 C         -4.9396576298        3.1639747694        0.6699817716
 C         -5.0605702699        2.0762944986        1.5209285506
 C         -4.9018723397        0.7903495990        1.0294072795
 H         -4.9891487098       -0.0723907915        1.6683642988
 H         -5.2775678501        2.2255398577        2.5664239607
 H         -5.0634709899        4.1636452490        1.0553885025
 H         -4.5656965594        3.8223654311       -1.3355817977
 H         -4.2640409990        1.5004793119       -2.2067176097
 H         -4.3490681094       -2.7558260205        0.5018495465
 H         -2.7506586597       -3.4947391018        2.1076252562
 H         -0.5302855500       -3.1771682326        3.1363374170
 H          0.9148144501       -1.3145176419        2.4153636590
 H          0.5444036202        1.2468120390        1.3991855012
 C         -0.0395982194        1.3116055208       -0.6564675589
 C         -0.9954783995        2.4548970906       -0.4983827381
 C          0.4345814006        2.7183706410       -0.8600564776
 H          0.6637633308        3.0454797919       -1.8632411372
 H          1.0868603204        3.1329726704       -0.1053608571
 H         -1.7511665993        2.5986512812       -1.2555507882
 H         -1.3220722897        2.7005034697        0.5006711520
 H         -0.1354973991        0.6822303616       -1.5353994795
