  62
        -98.94967960
 C         -1.5014233155       -1.0550772810        0.0350793448
 C         -2.5222368638       -0.6314815162        0.9164626694
 C         -3.0396568617        0.7216573539        0.6905615254
 C         -2.5064546434        1.4872378110       -0.2793749108
 C         -2.8986824683        2.9034872230       -0.6030864104
 C         -4.1193639848        3.0220097821       -1.5260774958
 C         -5.4610286027        2.6820446406       -0.8758536658
 H         -5.5720243279        3.2561547120        0.0445497303
 H         -6.2427138321        3.0122936940       -1.5627896014
 C         -5.6608594999        1.1889312382       -0.5811112508
 H         -4.9389730345        0.6046466093       -1.1561390796
 H         -6.6564735222        0.8827156826       -0.9096432946
 C         -5.5357311201        0.8121571660        0.8951199974
 H         -6.3344980357        1.2915041787        1.4653150503
 H         -5.6605283743       -0.2699855054        0.9843752258
 C         -4.1904496279        1.1866445613        1.5313218171
 H         -4.1343244506        2.2635233184        1.6911504119
 H         -4.1163565876        0.6865661225        2.5004502336
 H         -3.9622759795        2.3800538995       -2.3958095463
 H         -4.1614184680        4.0552892068       -1.8781096794
 H         -3.0828918598        3.4506556754        0.3221431546
 H         -2.0383805113        3.3543313702       -1.1029647868
 O         -1.5081180735        1.0524210066       -1.0912151705
 C         -0.9844763263       -0.2219855440       -0.9561461575
 O         -0.0794182286       -0.4952581396       -1.7692336539
 H          0.4350024238       -0.5853092063        1.5968006709
 C          1.1035386122       -1.3087093238        1.1527099589
 C          0.5910340630       -2.3496192855        0.3889712201
 C          1.4804594138       -3.2668453028       -0.1580168965
 C          2.8440693938       -3.1261639337        0.0346047537
 C          3.3509294548       -2.0593663125        0.7538173065
 C          2.4688184141       -1.1424076833        1.3125403151
 N          2.9285010124       -0.0168828621        2.0314537375
 S          2.6280969500        1.4752517427        1.3240581788
 O          3.2723236628        2.4385890827        2.1921412246
 O          1.2134520452        1.6478930659        1.1196787850
 C          3.5092675020        1.3974804999       -0.2253564130
 C          4.7932582023        1.9075933850       -0.2730871009
 C          5.5242404882        1.7809984524       -1.4425690982
 C          4.9651291614        1.1378352548       -2.5369956458
 C          3.6778136583        0.6286047725       -2.4706224822
 C          2.9367728549        0.7551248549       -1.3046851231
 H          1.9304264814        0.3702326345       -1.2381390301
 H          3.2346911787        0.1279332485       -3.3165574242
 H          5.5341208609        1.0335465996       -3.4473652072
 H          6.5245817509        2.1794702418       -1.4961375134
 H          5.1833719880        2.4013539802        0.6024466692
 H          3.9086771614       -0.0682104985        2.2762361794
 H          4.4154823664       -1.9327987108        0.8817330434
 H          3.5214414058       -3.8466202138       -0.3975336320
 H          1.1046095637       -4.0912888519       -0.7416692546
 C         -0.9036575366       -2.4392069420        0.2019881371
 H         -1.3459576066       -2.8407855112        1.1266236434
 C         -1.3076515556       -3.3282364511       -0.9574397545
 C         -1.5216412371       -4.7977387135       -0.7534423895
 C         -2.6947969990       -3.8944224557       -0.9823029165
 H         -3.2142897752       -3.9472255660       -1.9273349926
 H         -3.3364454308       -3.6631929854       -0.1444582523
 H         -1.3751328809       -5.1918348000        0.2408226709
 H         -1.2379519797       -5.4748232856       -1.5450509027
 H         -0.8860708166       -2.9953448722       -1.8995294573
 O         -2.9730768001       -1.3481025824        1.8523163034
