  62
        -98.94469983
 C         -2.6209690577       -1.2534443167        0.1240541337
 C         -2.6557655885       -0.3033160165       -0.9253942792
 C         -3.4967634458        0.8783518026       -0.6916093987
 C         -4.1869845640        1.0020473976        0.4557056849
 C         -5.0965106462        2.1407771692        0.8287474548
 C         -4.3668191401        3.3502486139        1.4290927626
 C         -3.5501054915        4.1771616433        0.4352092985
 H         -4.1766260884        4.4440735146       -0.4164401908
 H         -3.2736328056        5.1046319754        0.9403761996
 C         -2.2709003003        3.4886937946       -0.0618245843
 H         -2.0121922584        2.6639410000        0.6072413959
 H         -1.4360246449        4.1928385874       -0.0263429910
 C         -2.3515209571        2.9573729482       -1.4930148471
 H         -2.4695347827        3.7925588677       -2.1873378055
 H         -1.4039482949        2.4619277967       -1.7233345301
 C         -3.4897329491        1.9565027077       -1.7332640839
 H         -4.4475002102        2.4757762603       -1.7507466549
 H         -3.3294978044        1.4820532320       -2.7044989213
 H         -3.7143651013        3.0016541448        2.2330211740
 H         -5.1241769943        4.0003842517        1.8728901225
 H         -5.6678094118        2.4556561305       -0.0448006913
 H         -5.7897854934        1.7513610594        1.5772953523
 O         -4.1459095598        0.0583514410        1.4322082359
 C         -3.3507820894       -1.0664407538        1.3033111522
 O         -3.3859852395       -1.8284816681        2.2899302910
 H         -0.0214120388       -1.1425115940       -1.4717360479
 C          0.4227125982       -1.4379109430       -0.5329074975
 C         -0.3327925342       -2.1602148926        0.3798504635
 C          0.2433386958       -2.4972663445        1.5993626227
 C          1.5419679022       -2.1199936272        1.8933353832
 C          2.2887213213       -1.3935924948        0.9828079238
 C          1.7173919123       -1.0422966556       -0.2328692260
 N          2.4597185790       -0.2803040162       -1.1568555385
 S          3.0569544389        1.1900908882       -0.5996128602
 O          2.2529607492        1.7140623677        0.4811335003
 O          3.1831288801        2.0259054586       -1.7738506805
 C          4.6849830161        0.7768427360       -0.0076885717
 C          5.0351233542        1.0490659845        1.3001149325
 C          6.3089087478        0.7173555383        1.7355577096
 C          7.2047526291        0.1232246837        0.8599259366
 C          6.8383451681       -0.1409397958       -0.4515790238
 C          5.5671485155        0.1890535843       -0.8932457084
 H          5.2429307122        0.0050757072       -1.9038376756
 H          7.5379381747       -0.6025859325       -1.1296114980
 H          8.1944418457       -0.1353813599        1.2018536145
 H          6.5954170874        0.9222390840        2.7546097761
 H          4.3026336899        1.5065072119        1.9461682395
 H          1.9684525615       -0.1412365694       -2.0293746280
 H          3.2969328349       -1.0872424206        1.2098286623
 H          1.9757418524       -2.3895220520        2.8442801344
 H         -0.3442323677       -3.0400182461        2.3258698876
 C         -1.7697607485       -2.5153717151        0.0802070778
 H         -2.1365805394       -3.1475291123        0.8995094005
 C         -1.9104114597       -3.2850213508       -1.2178826926
 C         -1.5213825067       -4.7313750632       -1.2475823525
 C         -2.9661753643       -4.3416655542       -1.3290241194
 H         -3.4818234634       -4.4564512990       -2.2706271191
 H         -3.5919624016       -4.5155245973       -0.4655653661
 H         -1.0422709862       -5.1174060934       -2.1340968853
 H         -1.1673957299       -5.1720024386       -0.3278807153
 H         -1.7130010608       -2.6904354589       -2.0995991801
 O         -2.0318736722       -0.4108551958       -2.0158481912
