  62
        -98.94026887
 C          2.0489668118        0.4833995632        0.4174667106
 C          3.0154761068        0.5462859682       -0.6163454227
 C          3.8186811966       -0.6684167663       -0.8139621864
 C          3.5807067572       -1.7628717347       -0.0704723310
 C          4.3029695756       -3.0790183564       -0.1720501152
 C          5.6195723389       -3.1284544779        0.6159047058
 C          6.7704259811       -2.3213801140        0.0133119311
 H          7.6792810206       -2.6193725320        0.5398269500
 H          6.8957097417       -2.5965398927       -1.0342941998
 C          6.6080917847       -0.7995623245        0.1323001284
 H          5.8518819659       -0.5718303059        0.8871986483
 H          7.5465376516       -0.3593665723        0.4768656244
 C          6.2307900042       -0.0983328082       -1.1726168974
 H          6.1040993979        0.9669168974       -0.9644321710
 H          7.0426621277       -0.2068200119       -1.8950554258
 C          4.9349670067       -0.6124649554       -1.8133988330
 H          5.0977027043       -1.5939790241       -2.2575593493
 H          4.6404528420        0.0854150164       -2.6007197386
 H          5.4281735366       -2.7857976416        1.6355071768
 H          5.9271264377       -4.1753492209        0.6697047797
 H          4.4947662517       -3.3123465029       -1.2197204714
 H          3.6282303827       -3.8352787972        0.2349683406
 O          2.6114451698       -1.7995003752        0.8840098397
 C          1.8476148130       -0.6798538753        1.1661520221
 O          1.0371309980       -0.8413753353        2.1024919323
 O          3.2214718199        1.5532612983       -1.3419600585
 C          1.1579930242        1.6641368693        0.7737671424
 C          0.0598956656        1.8059894758       -0.2536871091
 C          0.2623148913        2.4424344865       -1.4734836452
 C         -0.7654006869        2.5258936077       -2.3951924916
 C         -2.0076917638        1.9833316584       -2.1212591878
 C         -2.2226499179        1.3499894180       -0.9019457740
 C         -1.1898286128        1.2650771819        0.0202386670
 H         -1.3583893371        0.7523055746        0.9563267021
 N         -3.4933379096        0.8378512943       -0.5854726295
 S         -3.6208478040       -0.5510688493        0.3644255024
 O         -3.4088312907       -0.1931204913        1.7438679684
 O         -2.7857420563       -1.6022826147       -0.1745899142
 C         -5.3450722107       -0.9303146755        0.1084035806
 C         -5.7065735792       -1.8995758717       -0.8077478297
 C         -7.0529972136       -2.1543069072       -1.0181949851
 C         -8.0095510194       -1.4368068003       -0.3159898167
 C         -7.6314248289       -0.4675589969        0.6014459389
 C         -6.2873533013       -0.2094452430        0.8178575986
 H         -5.9448138056        0.5265427279        1.5262757906
 H         -8.3775164719        0.0863771560        1.1479249781
 H         -9.0562900588       -1.6361222456       -0.4827378426
 H         -7.3498888970       -2.9095453458       -1.7279466073
 H         -4.9278111859       -2.4367652173       -1.3250966942
 H         -4.0978236861        0.7787842319       -1.3942692395
 H         -2.8078449689        2.0504232849       -2.8427944013
 H         -0.5948412948        3.0157633856       -3.3419561584
 H          1.2365458560        2.8399200937       -1.7067971195
 H          0.6821129885        1.3955207376        1.7272267073
 C          1.9390387255        2.9480218009        0.9718180941
 C          1.2920692905        4.0810462208        1.7075652726
 C          2.4084476196        3.3120698931        2.3465853631
 H          3.3711288852        3.7893713935        2.4524777774
 H          2.1661364922        2.6346528081        3.1531337305
 H          1.4859675370        5.0892592110        1.3756188972
 H          0.2909555733        3.9236657496        2.0807640100
 H          2.5954278049        3.1885157045        0.1464581499
