  62
        -98.94953313
 C         -1.6026347455        0.8575954415        0.7081667084
 C         -1.4446339445        1.6500893544       -0.4539759151
 C         -0.4190901067        2.7012666259       -0.3781384266
 C          0.3177002261        2.8255988210        0.7401261199
 C          1.3903050517        3.8544673265        0.9553340328
 C          2.7777888566        3.3473699656        0.5410826333
 C          2.8249055307        2.7186217462       -0.8516540076
 H          3.8656135043        2.4525192139       -1.0537067808
 H          2.2563033274        1.7857804857       -0.8605707998
 C          2.3010234141        3.6196624679       -1.9779352480
 H          2.2957669248        4.6617441853       -1.6543455263
 H          2.9836862305        3.5452518240       -2.8271342769
 C          0.9113466986        3.2335763209       -2.4891309694
 H          0.7469068075        3.7357818446       -3.4467044842
 H          0.8819449191        2.1555436375       -2.6715157771
 C         -0.2621466791        3.6003724970       -1.5712905501
 H         -0.1743454899        4.6444136994       -1.2608206710
 H         -1.1839516032        3.4898953915       -2.1502247436
 H          3.1096284856        2.6000355148        1.2658914568
 H          3.4737964391        4.1878724554        0.5819770365
 H          1.1386579184        4.7483768253        0.3873788479
 H          1.4103196670        4.1056024913        2.0176519320
 O          0.1734819682        2.0094673643        1.8164089298
 C         -0.7810591729        1.0035839873        1.8244311466
 O         -0.7999852835        0.3210683195        2.8686279941
 H         -0.2730951452       -1.3036634209        0.2513675158
 C         -1.0032688808       -1.6800877873       -0.4502089153
 C         -2.3207810516       -1.2529188479       -0.3463366129
 C         -3.2553013281       -1.7605487213       -1.2385993059
 C         -2.8633497361       -2.6456695043       -2.2288117587
 C         -1.5406215968       -3.0268189043       -2.3603167132
 C         -0.6005833054       -2.5342847461       -1.4617974679
 N          0.7533400992       -2.8930425282       -1.5454132698
 S          1.9169031425       -1.7485181770       -1.1658156551
 O          1.4954484530       -0.4131347532       -1.5153298344
 O          3.1153396445       -2.2265278934       -1.8251256990
 C          2.1339066814       -1.9068729419        0.5931839273
 C          2.2087157872       -0.7718223472        1.3742349870
 C          2.3926814691       -0.9045851268        2.7407691479
 C          2.5032287487       -2.1681342436        3.2991995630
 C          2.4352672010       -3.2999645588        2.5005213154
 C          2.2500049955       -3.1723506904        1.1335260568
 H          2.1879659432       -4.0275982635        0.4815552863
 H          2.5209784482       -4.2803775826        2.9408562355
 H          2.6392997485       -2.2683308894        4.3644403083
 H          2.4289480594       -0.0226567052        3.3600694699
 H          2.1004221763        0.1936713081        0.9050176871
 H          1.0043289647       -3.4349022649       -2.3595446833
 H         -1.2335727922       -3.6934533134       -3.1518229204
 H         -3.5969709895       -3.0294683252       -2.9215816954
 H         -4.2860347847       -1.4538147489       -1.1695671334
 C         -2.6398697322       -0.2522662212        0.7375997778
 H         -2.5212879554       -0.7526217779        1.7100655012
 C         -4.0387897116        0.3192148981        0.6477405905
 C         -5.1920938910       -0.4122780863        1.2644911885
 C         -4.6838135215        0.8501915300        1.8913582227
 H         -5.2857904239        1.7434513196        1.8187293884
 H         -4.1212447291        0.7767661651        2.8108319824
 H         -6.1479476662       -0.3843805815        0.7634989496
 H         -4.9820326842       -1.3454239640        1.7648191242
 H         -4.2079552315        0.8623224794       -0.2748478702
 O         -2.1411178855        1.5068433096       -1.4930868926
