  62
        -98.94128925
 C         -2.6751865959       -0.3337944695       -0.2905165981
 C         -2.2617793693       -1.1289385036        0.8074536116
 C         -1.6760255094       -2.4375445066        0.4653513597
 C         -1.5507157924       -2.7979361521       -0.8230915388
 C         -0.9572857934       -4.0907838285       -1.3039272757
 C          0.5470780977       -3.9648693667       -1.5755666299
 C          1.3376345645       -3.3311375241       -0.4303871036
 H          1.0607937846       -2.2777448096       -0.3418704552
 H          2.3926803685       -3.3550470095       -0.7148765437
 C          1.1609954963       -4.0199550658        0.9295413077
 H          2.1408334909       -4.1065289172        1.4039032418
 H          0.7763624908       -5.0312651561        0.7872288755
 C          0.2608619326       -3.2640862248        1.9091507903
 H          0.5718115699       -2.2168035538        1.9535848608
 H          0.4062092017       -3.6925263217        2.9050204904
 C         -1.2426283444       -3.3130496807        1.6074435849
 H         -1.7699709491       -2.9352163174        2.4886051107
 H         -1.5515413029       -4.3474908517        1.4381994394
 H          0.6879907344       -3.3457935146       -2.4645881390
 H          0.9417280837       -4.9614670755       -1.7848792303
 H         -1.1376505856       -4.8624091285       -0.5574794688
 H         -1.4608673119       -4.3703437609       -2.2313924887
 O         -1.9503048305       -2.0055460825       -1.8515884016
 C         -2.4889680620       -0.7552480848       -1.6096616345
 O         -2.7909186349       -0.1204028211       -2.6422373239
 H         -0.6909291962        0.9437003426        0.7456712915
 C         -0.8626452847        1.8237439491        0.1440298955
 C         -2.1215137242        2.0696844997       -0.3822061404
 C         -2.3116762737        3.2176795154       -1.1426409076
 C         -1.2612574073        4.0880334130       -1.3757835856
 C          0.0042335004        3.8123561089       -0.8894431024
 C          0.2039016172        2.6652831034       -0.1305925700
 N          1.4733044860        2.3127214883        0.3604272203
 S          1.8488991556        0.6613592378        0.2453509505
 O          1.2946730464        0.1227079363       -0.9753827442
 O          1.4697260816        0.0174421640        1.4762996501
 C          3.6279150851        0.7269419629        0.1366910802
 C          4.2231016622        0.7575735683       -1.1103456791
 C          5.6042719557        0.8399227693       -1.1922820383
 C          6.3622191956        0.8931024512       -0.0319545753
 C          5.7505970727        0.8601253658        1.2124971398
 C          4.3699738375        0.7766045576        1.3014922254
 H          3.8495677128        0.7380503623        2.2442771638
 H          6.3430946482        0.8977898637        2.1122778608
 H          7.4367199686        0.9573868015       -0.0985319241
 H          6.0821730839        0.8613990062       -2.1584243423
 H          3.5927854459        0.7024146567       -1.9837411959
 H          2.2136857172        2.8903617391       -0.0151663304
 H          0.8317939827        4.4720742081       -1.1020551632
 H         -1.4226360250        4.9764971873       -1.9672056321
 H         -3.2827276520        3.4113784350       -1.5742836462
 C         -3.2345041649        1.0755530542       -0.1580086282
 H         -3.9469160305        1.1932264822       -0.9919000242
 C         -3.9997541575        1.3253871625        1.1320175827
 C         -3.4304865914        2.1006581877        2.2778486604
 C         -4.5240220034        2.6957758907        1.4458257098
 H         -5.5109149266        2.7814692826        1.8744469277
 H         -4.2590816458        3.4995356882        0.7761921510
 H         -2.4314816533        2.4956180440        2.1728515836
 H         -3.6553470126        1.7556847040        3.2752062963
 H         -4.6397616465        0.4884494010        1.3895190337
 O         -2.3825799291       -0.7991246135        2.0153224481
