  62
        -98.94348066
 C         -1.5551863867       -1.3972973786        0.6131210993
 C         -2.5180140399       -1.1606615187       -0.3982308838
 C         -3.4447082572       -0.0443697508       -0.1489033939
 C         -3.3021261297        0.7057276727        0.9581165222
 C         -4.1632960733        1.8825679500        1.3144443629
 C         -3.5874032102        3.1951951042        0.7660974857
 C         -3.1807315420        3.1217305551       -0.7055666585
 H         -2.3599470095        2.4094145292       -0.8147540534
 H         -2.8003989070        4.1055252311       -0.9896102737
 C         -4.3180655209        2.7226085685       -1.6558627542
 H         -4.2977812021        3.3833789762       -2.5250746298
 H         -5.2811958577        2.8652563996       -1.1642836100
 C         -4.2264126812        1.2894390434       -2.1826019400
 H         -3.2298135232        1.1117805626       -2.5942441270
 H         -4.9424995553        1.1821552070       -3.0017503692
 C         -4.5305629410        0.1845693652       -1.1629807737
 H         -4.6292328275       -0.7554182769       -1.7136426871
 H         -5.4815757425        0.3926966175       -0.6681886482
 H         -2.7082687225        3.4579902065        1.3587268960
 H         -4.3318377512        3.9819973166        0.9013262674
 H         -4.2208477861        1.9474359588        2.4023899055
 H         -5.1644517609        1.7212778031        0.9189142950
 O         -2.3199907852        0.4928766695        1.8709172968
 C         -1.4319241455       -0.5566537815        1.7238586956
 O         -0.5873087549       -0.6442634680        2.6379020360
 O         -2.6273212831       -1.8370222572       -1.4537279845
 C         -0.5483256435       -2.5372210179        0.5485050617
 C          0.6246970381       -2.0945236397       -0.2910330661
 C          0.5596139787       -2.0310950479       -1.6785774192
 C          1.6374414257       -1.5621453000       -2.4083044095
 C          2.7959995070       -1.1458942523       -1.7750492357
 C          2.8650784633       -1.1970489890       -0.3896679153
 C          1.7855303890       -1.6714579108        0.3413679001
 H          1.8346162193       -1.6895458884        1.4220660419
 N          4.0325813940       -0.7496365938        0.2666707429
 S          4.4363646235        0.8555507508        0.0040039745
 O          4.9729195243        0.9962844638       -1.3254320346
 O          5.3200863412        1.2147265376        1.0893775723
 C          2.8888298256        1.7313140997        0.1375292869
 C          2.2120955609        2.1048828870       -1.0055071981
 C          0.9814575995        2.7284748098       -0.8783204576
 C          0.4520139205        2.9607332957        0.3813878783
 C          1.1398614724        2.5717103551        1.5199515941
 C          2.3699052048        1.9474407205        1.3984766823
 H          2.9366166348        1.6385082905        2.2623816169
 H          0.7173769824        2.7410950601        2.4974562887
 H         -0.5044419935        3.4493050386        0.4774697669
 H          0.4373329070        3.0287274832       -1.7596548596
 H          2.6607265379        1.9091406389       -1.9655399061
 H          4.0157376203       -0.9302490879        1.2609451622
 H          3.6404507579       -0.7683693662       -2.3287399557
 H          1.5747418871       -1.5175539521       -3.4850182315
 H         -0.3512417713       -2.3247174715       -2.1762389921
 H         -0.1871562514       -2.6705885157        1.5772473778
 C         -1.1387220540       -3.8507086740        0.0799567471
 C         -0.3832726963       -5.1154878102        0.3521351514
 C         -1.6515392904       -4.8247036062        1.0957296091
 H         -2.5339771350       -5.3995108481        0.8579698955
 H         -1.5800647466       -4.5483805595        2.1379543369
 H         -0.3921210666       -5.8922584558       -0.3968449379
 H          0.5496335002       -5.0352708319        0.8900217031
 H         -1.6824869325       -3.7790955446       -0.8516262892
