  62
        -98.94027843
 C          2.0120177465        0.7494753431        0.8895067861
 C          2.8718924232        1.1654351757       -0.1573397121
 C          4.2576904805        0.6799871112       -0.0710453146
 C          4.6401079909       -0.0995192258        0.9552369920
 C          6.0193916115       -0.6559028478        1.1823772184
 C          6.3008294177       -1.9554301603        0.4157673613
 C          6.4909530909       -1.7925290687       -1.0928696075
 H          7.2393685748       -1.0223688142       -1.2824160959
 H          6.8925553583       -2.7359708091       -1.4681528293
 C          5.2039323864       -1.4635733728       -1.8623398379
 H          4.3368905675       -1.7019118078       -1.2415854580
 H          5.1412233980       -2.0938362136       -2.7523859373
 C          5.0968948846       -0.0112493848       -2.3274215461
 H          4.1339863383        0.1173700463       -2.8279037352
 H          5.8847172845        0.1992166335       -3.0541099627
 C          5.1857505143        1.0227668769       -1.1973986943
 H          6.2111852687        1.0990663535       -0.8367384917
 H          4.8806270933        1.9930607815       -1.5966899184
 H          5.4852640333       -2.6570433050        0.6065125670
 H          7.2142887218       -2.3875752380        0.8310726666
 H          6.0987418654       -0.8632816384        2.2517829803
 H          6.7660498008        0.0932699243        0.9175442017
 O          3.7863757089       -0.4686400352        1.9475695924
 C          2.4600283343       -0.0750888520        1.9253674547
 O          1.7834007605       -0.5069809754        2.8816243120
 O          2.5258430395        1.8998017338       -1.1165275643
 C          0.5432438968        1.1350238874        0.9624795558
 C         -0.2881271351        0.1508062497        0.1815982968
 C         -0.0374091305       -0.0933941876       -1.1654973708
 C         -0.8091813381       -0.9986616960       -1.8704219041
 C         -1.8465797796       -1.6745346212       -1.2509774473
 C         -2.1043938581       -1.4372801290        0.0918982374
 C         -1.3279401175       -0.5282286616        0.7988457700
 H         -1.5245193077       -0.3586930212        1.8490378998
 N         -3.1838587343       -2.1009913224        0.7134657734
 S         -4.6938627226       -1.7534856842        0.0666269112
 O         -5.6472315552       -2.0984382113        1.0963009890
 O         -4.8380109392       -2.4372566331       -1.1927675694
 C         -4.6477018390        0.0106544432       -0.1882166962
 C         -4.8755096395        0.8339273419        0.8968317858
 C         -4.7387205510        2.2035187624        0.7396509431
 C         -4.3637161641        2.7226818805       -0.4902943257
 C         -4.1405268605        1.8827693781       -1.5699544257
 C         -4.2827011142        0.5123636199       -1.4212832425
 H         -4.1205369071       -0.1731009259       -2.2365755409
 H         -3.8489003418        2.2902102296       -2.5244960187
 H         -4.2404036932        3.7874708060       -0.6064439286
 H         -4.9152270773        2.8603779484        1.5764083381
 H         -5.1656385828        0.3909243275        1.8363982074
 H         -3.2047198815       -1.9719789484        1.7153910347
 H         -2.4653841790       -2.3759845082       -1.7871546306
 H         -0.6026184628       -1.1798155580       -2.9144203893
 H          0.7655396902        0.4401701347       -1.6508097695
 H          0.2746851435        1.0257308449        2.0247687377
 C          0.2794937844        2.5842058046        0.5721220169
 C         -0.5947897341        2.9891129588       -0.5737364559
 C         -1.0724917042        3.1809008767        0.8316797578
 H         -1.1291816978        4.1810431052        1.2332027705
 H         -1.8450171774        2.5152839138        1.1876599460
 H         -0.2945757049        3.8541635726       -1.1447195280
 H         -1.0595037683        2.2156254422       -1.1644970537
 H          1.1358690385        3.2200556206        0.7679977590
