  62
        -98.94347955
 C          1.2486799404        1.6961649118        0.3299977378
 C          1.6095804639        0.6278524506        1.1901842348
 C          2.8534750176       -0.0799348504        0.8607623084
 C          3.5460905938        0.2854228758       -0.2335130795
 C          4.7992710257       -0.3820765798       -0.7196215563
 C          4.4810012262       -1.5211504577       -1.6980000625
 C          3.4163748869       -2.4924390067       -1.1881639381
 H          2.4616998609       -1.9675100429       -1.1112749067
 H          3.3001171242       -3.2700862183       -1.9457458307
 C          3.7459710839       -3.1386744031        0.1645707299
 H          4.8106690497       -3.0336806480        0.3762171124
 H          3.5337966987       -4.2080659129        0.1067382689
 C          2.9393502925       -2.5870182935        1.3414871492
 H          1.8748387320       -2.5995302381        1.0973713543
 H          3.0898619367       -3.2496397069        2.1979227403
 C          3.3041077531       -1.1684130848        1.7942314637
 H          2.7901962214       -0.9811989478        2.7417640599
 H          4.3801148964       -1.1001462058        1.9693400521
 H          5.4047191972       -2.0646394889       -1.9049983056
 H          4.1268353990       -1.0835956096       -2.6340744364
 H          5.4095641773        0.3646876833       -1.2303064597
 H          5.3535369802       -0.7665571933        0.1344658492
 O          3.1520011496        1.2900949191       -1.0539858096
 C          2.0089439181        2.0325379863       -0.7909400658
 O          1.8017701105        2.9408228656       -1.6163911084
 H         -1.8394718100        0.5616938738        0.8370376645
 C         -1.9656640641        1.1521492073       -0.0589830039
 C         -1.1013097514        2.2113381483       -0.3110248928
 C         -1.2807934090        2.9626406514       -1.4668709181
 C         -2.3042133551        2.6566538982       -2.3457820519
 C         -3.1715091505        1.6110631651       -2.0872316880
 C         -3.0029548397        0.8552224249       -0.9312181930
 N         -3.8927891181       -0.1845548066       -0.6433510498
 S         -3.6466957223       -1.3799950888        0.4749889589
 O         -4.7552571388       -2.2872765201        0.2621092478
 O         -3.5399879820       -0.8279587577        1.8025141328
 C         -2.1445929676       -2.2397762963        0.0390443524
 C         -1.5956218628       -3.0628079593        1.0023756080
 C         -0.4982961933       -3.8432662136        0.6783913275
 C          0.0348234820       -3.7846931376       -0.6002535661
 C         -0.5170990784       -2.9427726713       -1.5519413808
 C         -1.6223199738       -2.1671768147       -1.2361030241
 H         -2.0637899420       -1.5099010566       -1.9675968309
 H         -0.0937080157       -2.8892449732       -2.5423534460
 H          0.8881602910       -4.3934177004       -0.8533457882
 H         -0.0642378254       -4.4928274649        1.4217252138
 H         -2.0365094351       -3.0724169482        1.9864697979
 H         -4.5559824288       -0.4296032986       -1.3612566006
 H         -3.9774571043        1.3822876572       -2.7675079909
 H         -2.4305638281        3.2435280012       -3.2428684512
 H         -0.6025982526        3.7700370693       -1.6863980240
 C          0.0025470983        2.4940028659        0.6784773778
 H         -0.3215096711        2.1034921562        1.6533143379
 C          0.2971031797        3.9734473165        0.8268607893
 C         -0.7007105826        4.8480800343        1.5228074808
 C          0.6044114298        4.5255872554        2.1848822011
 H          1.3478360860        5.3042267147        2.2683442335
 H          0.5984859696        3.8375244869        3.0178924079
 H         -0.8564800471        5.8498685606        1.1531277324
 H         -1.5933039168        4.3762033347        1.9058976778
 H          0.8419353448        4.3926891113       -0.0094145642
 O          0.9302331308        0.2911815438        2.1977649037
