  62
        -98.93994880
 C         -2.7715629683       -0.0671461162        0.4198902988
 C         -2.8186583592       -1.0276599713       -0.6248298976
 C         -2.2749132585       -2.3532254993       -0.3233742712
 C         -1.7915333002       -2.6050252542        0.9061062434
 C         -1.1422403015       -3.8844687987        1.3576086900
 C          0.3456109823       -3.9650059279        0.9859854180
 C          0.6311419190       -4.2491856643       -0.4898619527
 H          1.6819535420       -4.5370076856       -0.5611827968
 H          0.0355994326       -5.1016741083       -0.8195691610
 C          0.3854918633       -3.0517342609       -1.4188619037
 H          0.3633822400       -2.1340454949       -0.8257139153
 H          1.2197227316       -2.9580347891       -2.1188659897
 C         -0.8901746678       -3.1447442091       -2.2569630385
 H         -0.8006994562       -3.9691448560       -2.9687543021
 H         -0.9931284719       -2.2161266865       -2.8245656152
 C         -2.1753559533       -3.3438082578       -1.4439234054
 H         -3.0279760602       -3.1792114263       -2.1077531594
 H         -2.2236286361       -4.3610871804       -1.0560150388
 H          0.8243585421       -3.0239551340        1.2699902725
 H          0.7898877442       -4.7644325242        1.5841037458
 H         -1.2301749714       -3.9131533300        2.4458419682
 H         -1.6749700333       -4.7401172300        0.9410743227
 O         -1.8505705610       -1.6930840134        1.9092224609
 C         -2.2807820367       -0.3873343223        1.6863041589
 O         -2.1979708462        0.3348536349        2.6980336826
 O         -3.2856562295       -0.7730655942       -1.7683481923
 C         -3.1156989119        1.3530712073        0.0019370536
 C         -1.9705976190        1.8791281814       -0.8331697773
 C         -2.1819571790        2.6496708954       -1.9691213797
 C         -1.1083286045        3.0866065234       -2.7266807136
 C          0.1866417186        2.7440349339       -2.3838708687
 C          0.4074985273        1.9540151972       -1.2589837446
 C         -0.6675009092        1.5575685073       -0.4808697230
 H         -0.4870339900        0.9684489925        0.4053541502
 N          1.7001955062        1.5104881351       -0.9411786713
 S          2.0577573611        0.8224110612        0.5520752058
 O          1.3648202857       -0.4336138774        0.6747494071
 O          1.8565660890        1.7903326213        1.6090408358
 C          3.7986326752        0.5199815952        0.3233788969
 C          4.7198989381        1.4469075051        0.7725138811
 C          6.0688402520        1.2080604952        0.5608246802
 C          6.4708554112        0.0536737893       -0.0940948413
 C          5.5345041146       -0.8690019143       -0.5367790694
 C          4.1845706566       -0.6362119727       -0.3277534021
 H          3.4196798987       -1.3267084816       -0.6440677818
 H          5.8504360911       -1.7674642778       -1.0418334991
 H          7.5209730453       -0.1299993161       -0.2574641536
 H          6.7992955782        1.9210092218        0.9077287594
 H          4.3612291076        2.3240197966        1.2868717403
 H          2.4392376841        2.1080689447       -1.2821140284
 H          1.0200938045        3.0661917200       -2.9885185732
 H         -1.2833327066        3.6904238866       -3.6041785627
 H         -3.1918051967        2.8882510730       -2.2686780261
 H         -3.9918313137        1.2701403023       -0.6625405607
 C         -3.4890817127        2.2865502515        1.1397768828
 C         -2.5178164290        3.2499494064        1.7461409997
 C         -3.6434990895        3.7594848072        0.8996034856
 H         -4.4585870542        4.2745927062        1.3846180796
 H         -3.3971939216        4.1386532780       -0.0802205495
 H         -2.5550653808        3.3907602265        2.8154399216
 H         -1.5144198571        3.2767615479        1.3473888167
 H         -4.1942659382        1.8270642072        1.8238779761
