  62
        -98.94096004
 C         -1.4700776036       -1.1891057193        0.0490510350
 C         -2.5210826527       -0.7384587783        0.8753191046
 C         -3.1596448213        0.5389426428        0.5070101924
 C         -2.6833572177        1.2166285114       -0.5545950041
 C         -3.1946938689        2.5094849616       -1.1315219124
 C         -4.4864558120        2.3262714387       -1.9469335575
 C         -5.5169030219        1.3884367746       -1.3224180503
 H         -6.3163899373        1.2400761429       -2.0529196678
 H         -5.0544216875        0.4156605040       -1.1454202241
 C         -6.1548855100        1.8901263734       -0.0293471862
 H         -6.9058138106        1.1547000297        0.2703752379
 H         -6.6719524877        2.8317410015       -0.2274122430
 C         -5.2012145835        2.1030367274        1.1472416298
 H         -4.6202263309        3.0126061280        1.0193470920
 H         -5.8143949768        2.2499241793        2.0414637654
 C         -4.2781234029        0.9252664879        1.4455095674
 H         -3.8008704082        1.0974712068        2.4187323562
 H         -4.8834715631        0.0209262909        1.5773829141
 H         -4.9342245027        3.3080417863       -2.1089225606
 H         -4.2118675136        1.9150724311       -2.9212079837
 H         -2.4118513592        2.8872360550       -1.7931325221
 H         -3.3308612021        3.2389266437       -0.3382584833
 O         -1.6451363921        0.7575736292       -1.3072039764
 C         -0.9995832717       -0.4274573009       -1.0205897213
 O         -0.0498583285       -0.6987955376       -1.7803778694
 O         -2.9185189284       -1.3778740300        1.8899253467
 C         -0.7676003837       -2.4942710028        0.3808379821
 C          0.7026335009       -2.2250255916        0.5780315998
 C          1.7131323812       -2.9768553047       -0.0070461068
 C          3.0408533206       -2.6147098117        0.1465424779
 C          3.3866424534       -1.4857781158        0.8666823896
 C          2.3839681740       -0.7437062827        1.4754139856
 C          1.0616433210       -1.1290454824        1.3538373533
 H          0.2879042167       -0.5311895058        1.8207661962
 N          2.7350406277        0.4733441360        2.1343765415
 S          2.4532849763        1.7789317577        1.0935445900
 O          2.9118752691        2.9538283487        1.8058934081
 O          1.0697841575        1.8232177685        0.6666705561
 C          3.5401189982        1.4126951003       -0.2619477042
 C          3.0633778157        0.7062480971       -1.3484160960
 C          3.9486050070        0.3770109180       -2.3638732006
 C          5.2798276142        0.7535610023       -2.2748610594
 C          5.7399178743        1.4640090765       -1.1758862882
 C          4.8635735675        1.7951482913       -0.1555948833
 H          5.1703072182        2.3456141063        0.7185405211
 H          6.7756566538        1.7557491143       -1.1099157603
 H          5.9620977604        0.4905279977       -3.0678191289
 H          3.5863215219       -0.1784315074       -3.2139746578
 H          2.0231196127        0.4185006218       -1.3898666811
 H          2.1891404287        0.6296708138        2.9725455779
 H          4.4122726412       -1.1685172849        0.9603429139
 H          3.8127379649       -3.2047905474       -0.3223463806
 H          1.4582897369       -3.8388201514       -0.6016405903
 H         -1.1988777092       -2.8278757911        1.3365622057
 C         -1.0558475053       -3.5362561639       -0.6793611634
 C         -1.0524341605       -4.9935977243       -0.3285512925
 C         -2.3462321273       -4.2951460162       -0.6167473501
 H         -2.8599172523       -4.5154805060       -1.5404053499
 H         -3.0082143986       -4.0771733563        0.2086818534
 H         -0.6802616465       -5.6983591573       -1.0565044653
 H         -0.8391908741       -5.2605677555        0.6953660773
 H         -0.6958260976       -3.2407948477       -1.6586371293
