  62
        -98.93656874
 C         -2.4963048714       -1.2760835222        0.2082495268
 C         -2.6615804846       -0.3864505682       -0.8802416413
 C         -3.5417393815        0.7660327837       -0.6370264580
 C         -4.1327017069        0.9137274083        0.5622894593
 C         -5.0996993523        1.9966922309        0.9628327722
 C         -4.5375825687        3.4308459603        1.0091112822
 C         -4.7450021693        4.2340408231       -0.2809801040
 H         -5.5986614687        3.8196893981       -0.8185683515
 H         -5.0093807646        5.2598475144       -0.0163095737
 C         -3.5377138603        4.3123636724       -1.2203502276
 H         -3.8888650660        4.6845166180       -2.1851058566
 H         -2.8259878780        5.0413561536       -0.8261345865
 C         -2.7779288609        3.0041796005       -1.4417860410
 H         -2.0806661539        3.1496716301       -2.2690755816
 H         -2.1683942553        2.7793609902       -0.5629016438
 C         -3.6713568410        1.7828163755       -1.7334455529
 H         -4.7100620180        2.0856007560       -1.8561584894
 H         -3.3425458512        1.2925979952       -2.6518506749
 H         -3.4807564758        3.3992265123        1.2735797004
 H         -5.0568220622        3.9469131676        1.8183188609
 H         -5.9580885652        1.9661292223        0.2880073605
 H         -5.4491818644        1.7192216367        1.9594886356
 O         -3.9408840270        0.0345638384        1.5854536265
 C         -3.1100070784       -1.0645430129        1.4414351369
 O         -2.9985107766       -1.7645176320        2.4698394433
 H         -0.2179669529       -0.4792733221        1.1247976857
 C          0.3669110782       -0.9887597014        0.3673028903
 C         -0.1963443916       -2.0643541566       -0.3084707187
 C          0.5726705301       -2.7199166416       -1.2608387023
 C          1.8594476622       -2.2915928289       -1.5389761141
 C          2.4067222465       -1.2071968717       -0.8789846238
 C          1.6516586698       -0.5518221584        0.0850561140
 N          2.1942748134        0.5596825916        0.7558143657
 S          3.6921549835        0.3756586399        1.4942937524
 O          3.9107399630       -0.9896753685        1.9133099357
 O          3.7254295521        1.3803238987        2.5350573384
 C          4.8554178018        0.8195090019        0.2220560408
 C          5.8728859247       -0.0513206575       -0.1153146688
 C          6.7739491830        0.3215106676       -1.1007533803
 C          6.6422754358        1.5515605436       -1.7267588877
 C          5.6156938066        2.4154172807       -1.3746339658
 C          4.7125135745        2.0496882525       -0.3894654413
 H          3.9027471565        2.6916669375       -0.0848860426
 H          5.5158932804        3.3707352676       -1.8643175795
 H          7.3433914734        1.8390902168       -2.4942657832
 H          7.5724660044       -0.3484652765       -1.3761896538
 H          5.9311967507       -0.9998785358        0.3941393487
 H          1.5452457260        1.0035784431        1.3893785749
 H          3.4048236914       -0.8656981947       -1.0996144543
 H          2.4429916036       -2.8075453100       -2.2859881126
 H          0.1632009226       -3.5652474921       -1.7888375000
 C         -1.5981693321       -2.4897697774        0.0592398296
 H         -1.5570082878       -2.9627091758        1.0521972317
 C         -2.2083754220       -3.4697080785       -0.9219065446
 C         -1.9778108849       -4.9419552911       -0.7660491935
 C         -3.3216147697       -4.3567670453       -0.4546964706
 H         -4.1417488095       -4.5545746249       -1.1283203491
 H         -3.6185333661       -4.2736270036        0.5810913434
 H         -1.8785512843       -5.5457621533       -1.6554690731
 H         -1.3647076696       -5.2681145829        0.0606340376
 H         -2.2792455145       -3.0626403904       -1.9238574639
 O         -2.1087966925       -0.5456800094       -1.9985987349
