  62
        -98.94306266
 C         -1.9413720460       -0.6401616777        0.7995063118
 C         -2.8693887074       -1.1729242696       -0.1291716727
 C         -4.2383509676       -0.6461272772       -0.0371470422
 C         -4.5478371164        0.2763527064        0.8904542330
 C         -5.9019109689        0.8932056282        1.1135943669
 C         -6.2100518569        2.0761179540        0.1853303734
 C         -6.4949887763        1.7042466487       -1.2704297262
 H         -7.2626511695        0.9304571587       -1.3026203147
 H         -6.9078428274        2.5927328121       -1.7524069160
 C         -5.2616778534        1.2427947978       -2.0595278296
 H         -4.3553844880        1.5474314319       -1.5306166172
 H         -5.2453745300        1.7395684375       -3.0322423428
 C         -5.2015299516       -0.2625965462       -2.3181033749
 H         -6.0336692045       -0.5573375713       -2.9612833432
 H         -4.2711866006       -0.4815646385       -2.8478110128
 C         -5.2375487885       -1.1226259819       -1.0482892091
 H         -6.2400596830       -1.1223227114       -0.6213574610
 H         -4.9721552756       -2.1469250508       -1.3205352969
 H         -5.3739250413        2.7783286218        0.2254805119
 H         -7.0897271724        2.5844136413        0.5871446629
 H         -6.6745360874        0.1317326412        1.0032924918
 H         -5.9128992669        1.2529782629        2.1447938104
 O         -3.6320902994        0.7542345606        1.7749957512
 C         -2.3175876911        0.3223346226        1.7415965715
 O         -1.5871330928        0.8551339720        2.6026562686
 H          1.4327059344        0.8175065125        1.1877709672
 C          1.2673082224        0.5908276969        0.1447707895
 C          0.3154174115       -0.3505085077       -0.2209923038
 C          0.1083858470       -0.6020105862       -1.5741147509
 C          0.8362686088        0.0790352966       -2.5318147799
 C          1.7959548765        1.0057748639       -2.1629083407
 C          2.0111791757        1.2644531198       -0.8151567214
 N          2.9802356450        2.2016135918       -0.4079857474
 S          4.1583320952        1.7117635963        0.6758432132
 O          3.5724656855        1.4601619436        1.9668993352
 O          5.1681395002        2.7448597032        0.6162808867
 C          4.7904693767        0.1990576129       -0.0262730856
 C          5.8350072196        0.2694733035       -0.9274467036
 C          6.2756957504       -0.8949989907       -1.5350669144
 C          5.6584378971       -2.1020299426       -1.2428089037
 C          4.6097357161       -2.1557047253       -0.3376794467
 C          4.1699403619       -0.9954678377        0.2793705655
 H          3.3604938516       -0.9981985289        0.9905196807
 H          4.1276188009       -3.0927398557       -0.1097956235
 H          5.9970606258       -3.0074117018       -1.7212430616
 H          7.0940486222       -0.8576850256       -2.2359194174
 H          6.2882280787        1.2281585172       -1.1216736885
 H          3.4093662095        2.7008123071       -1.1745931418
 H          2.3675932262        1.5335260155       -2.9114781529
 H          0.6601125065       -0.1187754533       -3.5781891364
 H         -0.6446403578       -1.3174484526       -1.8655279467
 C         -0.4797684740       -1.0616482590        0.8481034322
 H         -0.1074915736       -0.7162758813        1.8225935555
 C         -0.2960205398       -2.5648114720        0.7725452804
 C          0.9224543481       -3.1832421160        1.3855707069
 C         -0.4192569872       -3.3762968524        2.0252606463
 H         -0.8883137368       -4.3468483912        1.9666452871
 H         -0.6268527499       -2.8469839648        2.9445214832
 H          1.3780852045       -4.0252715521        0.8879818126
 H          1.6235870459       -2.5283782552        1.8816711163
 H         -0.6815559032       -3.0028594689       -0.1378669589
 O         -2.5985800432       -2.0445330578       -0.9953936172
