  62
        -98.94502977
 C         -2.2533650608       -0.7953322994        0.0689194715
 C         -1.5088614108       -0.0208115707       -0.8469478896
 C         -1.7596037304        1.4328212394       -0.8571303313
 C         -2.6963456501        1.9328869706       -0.0302382517
 C         -3.1457792497        3.3619031209        0.1357070766
 C         -2.1531364994        4.2193435516        0.9308366654
 C         -0.7015903895        4.0976572307        0.4768123553
 H         -0.0948730592        4.7216619213        1.1396034445
 H         -0.3617177797        3.0697413308        0.6169316265
 C         -0.4329192496        4.5429643189       -0.9596531352
 H          0.6523570404        4.5532176884       -1.0900106054
 H         -0.7934857393        5.5658902688       -1.0911231464
 C         -1.0294788700        3.6626526677       -2.0628673841
 H         -0.4980009601        3.8991172665       -2.9890495545
 H         -2.0764125100        3.8966433378       -2.2394869142
 C         -0.8646564304        2.1654784280       -1.8261410323
 H         -0.9754696006        1.6393369568       -2.7814189617
 H          0.1626181096        1.9657411181       -1.4976229222
 H         -2.4724522191        5.2617771116        0.8650983642
 H         -2.2017985293        3.9161101929        1.9798664758
 H         -3.3424584398        3.8090692598       -0.8343632239
 H         -4.0903422497        3.3264498618        0.6840755168
 O         -3.4047302002        1.1412615318        0.8287198793
 C         -3.1840900105       -0.2175598181        0.9278551009
 O         -3.8729554706       -0.7957403769        1.7955869917
 H         -0.2909369506       -0.8777773680        1.6559814512
 C          0.1913172191       -1.7211406487        1.1829588822
 C         -0.5446511713       -2.5736608595        0.3702624733
 C          0.1053571784       -3.6564889404       -0.2102470155
 C          1.4590805183       -3.8584824505       -0.0034582355
 C          2.1980672987       -2.9734809897        0.7601713134
 C          1.5550041191       -1.8930638689        1.3519520722
 N          2.2623073995       -0.9346692081        2.1107292709
 S          2.3350570998        0.6065799910        1.4478126090
 O          3.1718679901        1.3663659219        2.3528337980
 O          1.0056412199        1.1122830611        1.2324247587
 C          3.2012558894        0.3693823390       -0.0941737908
 C          2.5200978991       -0.1148607022       -1.1928794301
 C          3.2333080089       -0.3726642038       -2.3546191199
 C          4.6004754989       -0.1495520542       -2.3974250704
 C          5.2686034893        0.3369391770       -1.2834123111
 C          4.5650223895        0.5941169786       -0.1185142613
 H          5.0393634997        0.9751710995        0.7716389782
 H          6.3317526993        0.5127985467       -1.3181923315
 H          5.1472822987       -0.3550914954       -3.3042413402
 H          2.7062836587       -0.7499329947       -3.2162584594
 H          1.4539205991       -0.2788094718       -1.1449030597
 H          3.1991637594       -1.2261428881        2.3565430211
 H          3.2602131587       -3.1116552599        0.8965519734
 H          1.9487843881       -4.7044565211       -0.4608753045
 H         -0.4492573919       -4.3407223410       -0.8314503046
 C         -2.0135682312       -2.2903791994        0.1659744832
 H         -2.5611675612       -2.6302432581        1.0579387437
 C         -2.5860895616       -2.9865733807       -1.0534140459
 C         -3.1618772219       -4.3658572704       -0.9441067241
 C         -4.0681004917       -3.1886052504       -1.1386528254
 H         -4.5528338718       -3.0592356014       -2.0946661955
 H         -4.6601843514       -2.8502268792       -0.3004432757
 H         -3.1509943419       -4.8383159892        0.0265400565
 H         -3.0285813522       -5.0475923214       -1.7706251533
 H         -2.0647672417       -2.7175498319       -1.9650779663
 O         -0.6631212110       -0.5218568319       -1.6355590391
