  62
        -98.94333889
 C         -1.1127933621       -1.2882670966       -0.1411742764
 C         -1.8945570768       -0.8117459263        0.9440600021
 C         -2.7902592667        0.3127971177        0.6573552440
 C         -2.7965450606        0.8604173734       -0.5709333617
 C         -3.6458186844        2.0171712381       -1.0231582923
 C         -5.0639363650        1.6163490754       -1.4532161734
 C         -6.0047053539        1.2263259644       -0.3122160932
 H         -5.9985217710        2.0091019788        0.4468957896
 H         -7.0131796981        1.1861210367       -0.7287425620
 C         -5.6862399534       -0.1274016431        0.3381570556
 H         -6.6087246869       -0.7004582281        0.4560216662
 H         -5.0345255736       -0.7044245650       -0.3220637104
 C         -5.0333108853       -0.0313222611        1.7172320947
 H         -5.7317060926        0.4253480598        2.4220128853
 H         -4.8183390806       -1.0447089706        2.0655304075
 C         -3.7226899532        0.7661665820        1.7397430824
 H         -3.2307465898        0.5891273349        2.6990079093
 H         -3.9331861818        1.8310964365        1.6431599079
 H         -5.4992477182        2.4703727268       -1.9773164056
 H         -4.9938462467        0.7911027117       -2.1656642698
 H         -3.7066242403        2.7652456882       -0.2324068510
 H         -3.1388748055        2.4580188906       -1.8838327823
 O         -1.9883366723        0.4179451426       -1.5671744716
 C         -1.1456949611       -0.6721925109       -1.3925485530
 O         -0.4971675586       -0.9629251765       -2.4162956885
 O         -1.8517189877       -1.3149364698        2.0971506766
 C         -0.2404853045       -2.5020249855        0.1343368149
 C          1.1622769681       -2.0816047230        0.4857990546
 C          1.7624525044       -2.4804292366        1.6736551536
 C          3.0401130287       -2.0544703150        1.9975521350
 C          3.7424500806       -1.2191328191        1.1467156379
 C          3.1474130944       -0.8138403603       -0.0405704792
 C          1.8717401846       -1.2457580873       -0.3664416788
 H          1.4164361526       -0.9257989775       -1.2921962553
 N          3.8355219348        0.0812425961       -0.8964538452
 S          3.9162738847        1.6446664438       -0.2971808538
 O          4.3583130433        2.4719101305       -1.3959240517
 O          4.7518964202        1.6395715231        0.8760854607
 C          2.2401235304        2.0596206801        0.1540343776
 C          1.4455802450        2.7207522057       -0.7604866255
 C          0.1339293470        3.0114081565       -0.4224442779
 C         -0.3623101834        2.6211349520        0.8114212864
 C          0.4414491774        1.9382153612        1.7105469232
 C          1.7576935534        1.6568749959        1.3836480581
 H          2.4154218024        1.1418792786        2.0646467128
 H          0.0435638203        1.6182072384        2.6603003191
 H         -1.3823585472        2.8471125483        1.0769625405
 H         -0.4976111219        3.5358671109       -1.1215254168
 H          1.8706024901        3.0086102012       -1.7089749639
 H          3.4274511485        0.1143693446       -1.8215860251
 H          4.7266676083       -0.8552580558        1.3928333760
 H          3.4921603765       -2.3718859893        2.9248080626
 H          1.2146073379       -3.1151297649        2.3545385175
 H         -0.6818228495       -2.9604498040        1.0331262463
 C         -0.2963294742       -3.5402301111       -0.9790989904
 C          0.8734394269       -3.9078310941       -1.8376816923
 C          0.3817218392       -4.8662451085       -0.7976138508
 H         -0.1326119195       -5.7607489569       -1.1144648152
 H          0.9888207596       -4.9941023807        0.0860260081
 H          0.6804668671       -4.1218974741       -2.8779884287
 H          1.8154640056       -3.4110807526       -1.6667847627
 H         -1.2656841255       -3.5558673609       -1.4673588751
