  62
        -98.93537615
 C         -1.9438934726       -0.6281556816        0.1677217983
 C         -2.6304680721        0.6067000982        0.3026611275
 C         -4.0097379584        0.6521666613       -0.1980486023
 C         -4.5442234477       -0.4442466601       -0.7643226275
 C         -5.9130436542       -0.5683977438       -1.3796366780
 C         -7.1089729414       -0.4173570943       -0.4200934658
 C         -7.6773461840        1.0047092543       -0.3368776928
 H         -7.4257920306        1.5378399077       -1.2545480646
 H         -8.7669301392        0.9457773684       -0.2973920789
 C         -7.2315271621        1.8320200698        0.8725978554
 H         -7.4963232325        2.8741902862        0.6811159488
 H         -7.7911765093        1.5075398599        1.7529164618
 C         -5.7451122014        1.7559216127        1.2220869007
 H         -5.5295035100        0.7997209168        1.7049396795
 H         -5.5284502495        2.5295838503        1.9616108157
 C         -4.7922446251        1.9141326543        0.0212080450
 H         -4.0635302171        2.7014898983        0.2248184594
 H         -5.3460465359        2.1831127414       -0.8771752958
 H         -6.8280944326       -0.7744394015        0.5703215176
 H         -7.8956060021       -1.0767378686       -0.7902755654
 H         -6.0014486108        0.1633849423       -2.1858941530
 H         -5.9398375436       -1.5636317782       -1.8279781255
 O         -3.8510282522       -1.6066413915       -0.8848160560
 C         -2.5495109577       -1.7382566070       -0.4220277553
 O         -2.0743496191       -2.8754057804       -0.6067158838
 O         -2.1096653674        1.6311528305        0.8216720172
 C         -0.5236725358       -0.6762150399        0.7041962182
 C          0.4980569067       -0.4915301183       -0.3925653644
 C          0.5915188230       -1.3794522222       -1.4601649459
 C          1.5393878908       -1.1885971557       -2.4482656808
 C          2.4261116927       -0.1275575354       -2.3805776218
 C          2.3456819335        0.7606050925       -1.3158462873
 C          1.3780893566        0.5794825599       -0.3362324205
 H          1.3223128597        1.2863160789        0.4779002015
 N          3.2415822921        1.8428632073       -1.2047690169
 S          4.1974109190        1.9236656791        0.1688979315
 O          3.3713857679        2.1180352129        1.3317375823
 O          5.1726992628        2.9531677259       -0.1109260034
 C          4.9999965983        0.3312916665        0.2363273917
 C          6.2591225874        0.1963097678       -0.3155588710
 C          6.8553368123       -1.0541893966       -0.3296740726
 C          6.1797624922       -2.1459491625        0.1944367577
 C          4.9148245700       -1.9946290458        0.7413670301
 C          4.3156291558       -0.7450977070        0.7655725134
 H          3.3342956090       -0.5946552049        1.1847975047
 H          4.3871673534       -2.8429931835        1.1465890053
 H          6.6411360315       -3.1207264834        0.1782737596
 H          7.8403288691       -1.1741236638       -0.7512310133
 H          6.7476424187        1.0730306704       -0.7092153521
 H          3.8197691347        1.9745423925       -2.0233519415
 H          3.1708888306        0.0157303299       -3.1489784933
 H          1.5952994105       -1.8796127094       -3.2755444847
 H         -0.0940276726       -2.2110569143       -1.5120901244
 H         -0.4445834144        0.1904332280        1.3752611525
 C         -0.2173963622       -1.9270287637        1.5052362470
 C          0.8508110959       -1.8710780311        2.5543398704
 C         -0.5899016129       -1.9762264181        2.9549776377
 H         -0.9485272989       -2.9092467724        3.3627049170
 H         -1.0658105798       -1.1034888832        3.3786442562
 H          1.4850563836       -2.7330995771        2.6925116961
 H          1.3481125240       -0.9252234001        2.7152901455
 H         -0.3209665482       -2.8406304424        0.9348924319
