  62
        -98.94521020
 C          2.0819681367        1.4598084494       -0.0106003704
 C          1.8928349655        0.4661058408       -1.0014272581
 C          2.7863601804       -0.6995895897       -0.9192909736
 C          3.6946026318       -0.7729571684        0.0699758984
 C          4.6154359866       -1.9335732696        0.3076372813
 C          3.9800333641       -2.9623826605        1.2536475371
 C          2.5572490070       -3.3662125422        0.8658128405
 H          1.8964412761       -2.5037828354        0.9797833159
 H          2.2308903964       -4.1209503165        1.5843834219
 C          2.4225759622       -3.9207360541       -0.5591361016
 H          1.7985572306       -4.8161624051       -0.5320026959
 H          3.4015903774       -4.2227783429       -0.9329438619
 C          1.7759136838       -2.9554424298       -1.5539811227
 H          0.8403794777       -2.5725392360       -1.1393712920
 H          1.5314097197       -3.5147886569       -2.4608065359
 C          2.6366928237       -1.7585926973       -1.9754233313
 H          2.1375933526       -1.2722805025       -2.8186493999
 H          3.6158909741       -2.1060828403       -2.3113316101
 H          3.9534739850       -2.5366435047        2.2593766199
 H          4.6183791461       -3.8475747766        1.2769507974
 H          5.5343218204       -1.5564203149        0.7597311796
 H          4.8572367116       -2.4006570617       -0.6451334210
 O          3.8430902343        0.1966963850        1.0078614452
 C          3.0476125300        1.3276610256        0.9925428532
 O          3.2931539470        2.1372019955        1.9090176026
 O          1.0337853353        0.5315211106       -1.9205406883
 C          1.2423317264        2.7280594656        0.0401982825
 C         -0.1412568068        2.3930676460        0.5434324280
 C         -0.4349488347        2.5245268547        1.8969437700
 C         -1.6882452554        2.1964751776        2.3814583438
 C         -2.6715745740        1.7238967714        1.5299334936
 C         -2.3802517295        1.5649659860        0.1810049461
 C         -1.1253068797        1.9085675314       -0.3055312000
 H         -0.9026927811        1.7676570379       -1.3514580655
 N         -3.3620427638        1.0836460396       -0.7035922579
 S         -4.2585225663       -0.2750924791       -0.3283169248
 O         -4.9605130442       -0.6077861646       -1.5462316908
 O         -5.0781761660        0.0005927514        0.8251545600
 C         -3.0830483503       -1.5586298659        0.0600086895
 C         -2.5839037620       -1.6596603645        1.3432686497
 C         -1.6528513253       -2.6475270068        1.6226779681
 C         -1.2458444253       -3.5175039115        0.6235219262
 C         -1.7585914542       -3.4045352506       -0.6599202093
 C         -2.6800102646       -2.4114062248       -0.9484217882
 H         -3.1064237795       -2.2919954494       -1.9314135409
 H         -1.4411921475       -4.0838043991       -1.4347635053
 H         -0.5240595535       -4.2872272385        0.8459280478
 H         -1.2499384220       -2.7357253468        2.6190284698
 H         -2.9340585520       -0.9778599311        2.1003122551
 H         -3.0415416603        1.0310937833       -1.6598943143
 H         -3.6558939442        1.4730557270        1.8910568337
 H         -1.9051991356        2.3142035699        3.4325274186
 H          0.3347172802        2.8805263150        2.5672612684
 H          1.7229924699        3.3698102884        0.7902323267
 C          1.2282789336        3.4669448306       -1.2828193006
 C          0.7767153030        4.8950452822       -1.3113400899
 C          2.2230617815        4.5615974593       -1.5183051304
 H          2.6429049176        4.6722295901       -2.5069561328
 H          2.9182813398        4.7863374608       -0.7223844463
 H          0.2010225100        5.2380134423       -2.1573491906
 H          0.4899815524        5.3457017851       -0.3730693621
 H          0.9782009770        2.8413403200       -2.1293513010
