  62
        -98.93178303
 C         -2.2853204038       -0.7552456849       -0.2628862971
 C         -3.6154472728       -1.2110261066       -0.0715525782
 C         -4.6875406681       -0.2942469286       -0.4758255314
 C         -4.3614573099        0.9003447138       -1.0016834262
 C         -5.3472708003        1.9541361305       -1.4144380748
 C         -5.6499721359        2.9179331992       -0.2586128967
 C         -5.9960021357        2.2173672779        1.0552242215
 H         -5.1149447043        1.6809201238        1.4149065558
 H         -6.2205962717        2.9946270582        1.7888143180
 C         -7.1791376963        1.2436767584        0.9631088789
 H         -7.7617799081        1.4521679470        0.0651571103
 H         -7.8350801279        1.4073097913        1.8206604503
 C         -6.7854600796       -0.2344487922        0.9791339608
 H         -6.1231257551       -0.4282838675        1.8265079083
 H         -7.6920255677       -0.8264994190        1.1301549477
 C         -6.1057496358       -0.7573908266       -0.2925535731
 H         -6.0568097410       -1.8476714209       -0.2189307648
 H         -6.7093557290       -0.4989344473       -1.1650143090
 H         -6.4766731604        3.5651121880       -0.5571995999
 H         -4.7705215906        3.5440337606       -0.0913692967
 H         -4.9182346315        2.5186862069       -2.2439375057
 H         -6.2641078729        1.4733135078       -1.7501726786
 O         -3.0787158379        1.3021723001       -1.1775543637
 C         -2.0045534296        0.4918850731       -0.8219259504
 O         -0.8975780098        1.0083472349       -1.0549361322
 H          1.2416931896       -0.3918837303       -0.5264822804
 C          1.0202689630       -0.4408152862        0.5236686111
 C         -0.1355279437       -1.0426496788        0.9947715668
 C         -0.3800214884       -1.0000253237        2.3681435919
 C          0.5029085069       -0.3891800582        3.2369223533
 C          1.6727918051        0.1762844929        2.7616875811
 C          1.9237392423        0.1518944407        1.3963529940
 N          3.0900985084        0.7278810057        0.8671896165
 S          3.8313740954       -0.0667332947       -0.4249759140
 O          3.2927168563        0.4276734471       -1.6662857098
 O          3.7643679694       -1.4961631818       -0.2185003865
 C          5.5123866466        0.5012301559       -0.2397697958
 C          5.8449353656        1.7552345195       -0.7169482231
 C          7.1428697210        2.2119978817       -0.5522594747
 C          8.0814870075        1.4122039556        0.0830369870
 C          7.7335167090        0.1556014047        0.5550449615
 C          6.4365415910       -0.3066809017        0.3951801064
 H          6.1217219796       -1.2791715447        0.7379646654
 H          8.4661868455       -0.4651097211        1.0450567074
 H          9.0913484547        1.7696719386        0.2078621750
 H          7.4175571078        3.1872162813       -0.9207213892
 H          5.0840124730        2.3357532311       -1.2125693471
 H          3.7559436076        1.0008544726        1.5768375507
 H          2.3756881375        0.6406472990        3.4367329941
 H          0.2873794825       -0.3668651455        4.2945508388
 H         -1.2851551858       -1.4528138583        2.7495482320
 C         -1.1715186129       -1.7171528251        0.1345928271
 H         -1.6811415235       -2.4469574806        0.7849028883
 C         -0.7284524494       -2.5266419657       -1.0795851816
 C          0.0183529416       -1.9939509846       -2.2643007856
 C          0.6678470707       -2.9949557993       -1.3549071782
 H          0.7976463700       -4.0022870235       -1.7234139559
 H          1.4722682268       -2.6598542776       -0.7180793496
 H         -0.2984320756       -2.3218044161       -3.2450231350
 H          0.3561096720       -0.9694588297       -2.2522437310
 H         -1.5128223462       -3.2375444734       -1.3316633931
 O         -3.8916972244       -2.3404900391        0.4165168183
