  62
        -98.93967078
 C          1.5036259072        1.1360805176        0.6337208522
 C          2.3412358705        0.8504632042       -0.4710467177
 C          2.9472900976       -0.4925875521       -0.4807074574
 C          2.6088398731       -1.3860508523        0.4645141643
 C          3.1708128493       -2.7726768272        0.5803783199
 C          4.4184028925       -2.7986853957        1.4745673043
 C          5.4546619936       -1.7328875999        1.1182629093
 H          5.0328548160       -0.7458119643        1.3204447328
 H          6.3033568157       -1.8657727256        1.7924613390
 C          5.9432647229       -1.7854003456       -0.3358525669
 H          7.0301098502       -1.6800087286       -0.3449177146
 H          5.7078814266       -2.7573508169       -0.7708429869
 C          5.3815225038       -0.6811162610       -1.2331070492
 H          5.9491177781       -0.6805423695       -2.1674981129
 H          5.5339284621        0.2906393562       -0.7567936117
 C          3.8978254822       -0.8084798830       -1.6017975441
 H          3.6858323756       -0.0769518515       -2.3877210193
 H          3.6994083202       -1.8050458347       -2.0030459438
 H          4.1052215099       -2.6407682111        2.5090920855
 H          4.8720886065       -3.7888803047        1.4036996713
 H          2.4031130002       -3.4149047876        1.0158005245
 H          3.4127053957       -3.1433292655       -0.4140770659
 O          1.7339761037       -1.1054650799        1.4622559084
 C          1.1538615738        0.1445057751        1.5562123211
 O          0.3493839876        0.2667582980        2.5024857748
 H         -0.1536609159        1.1344625924       -1.3232857656
 C         -0.9638581156        1.4928706609       -0.7021559873
 C         -0.6793431340        2.2343410018        0.4361695982
 C         -1.7364107624        2.6776875326        1.2205152292
 C         -3.0436530971        2.3677522603        0.8859193213
 C         -3.3166460969        1.5762172866       -0.2157917694
 C         -2.2653105856        1.1365556121       -1.0080441281
 N         -2.5374789329        0.2106682817       -2.0598996183
 S         -2.2163546360       -1.3573196122       -1.5038546129
 O         -0.8571571712       -1.4804216810       -1.0191787092
 O         -2.5673566434       -2.2426011655       -2.5938039933
 C         -3.3760457392       -1.5229711730       -0.1685664492
 C         -2.9692945076       -1.2315028447        1.1187476547
 C         -3.8990782069       -1.3104693135        2.1439958813
 C         -5.2077882857       -1.6743219092        1.8654857840
 C         -5.5982228367       -1.9660321459        0.5668467414
 C         -4.6755147622       -1.8873487483       -0.4636180889
 H         -4.9283737813       -2.1055905439       -1.4880803594
 H         -6.6163277345       -2.2501634142        0.3549797037
 H         -5.9266226609       -1.7310133559        2.6676073848
 H         -3.5908211710       -1.0805570100        3.1513387490
 H         -1.9435463623       -0.9470011000        1.3022170674
 H         -1.9570500757        0.3691120765       -2.8743388502
 H         -4.3242293532        1.2842518052       -0.4625646674
 H         -3.8538138525        2.7166537178        1.5068279055
 H         -1.5258193701        3.2415055082        2.1172398954
 C          0.7592064374        2.4506298823        0.8332420746
 H          0.7700162039        2.6413427472        1.9194064224
 C          1.3963792750        3.6511462927        0.1542716535
 C          0.8435988012        4.2667181191       -1.0924657675
 C          0.7194275640        4.9885757037        0.2137476760
 H          1.3267824884        5.8650916360        0.3799638697
 H         -0.2597171626        5.0341038550        0.6655059743
 H          1.5475638966        4.6259573213       -1.8272541549
 H         -0.0464649899        3.8326766242       -1.5219768516
 H          2.4762790633        3.6470320666        0.2486981541
 O          2.5838806035        1.6498764982       -1.4131968285
