  62
        -98.93723004
 C          1.9924072231        0.5128299379        0.1674747256
 C          2.7008031154       -0.7130911414        0.2465103722
 C          4.0869436821       -0.7261408874       -0.2507340025
 C          4.6169648388        0.4072941013       -0.7465254638
 C          5.9714414506        0.6936396955       -1.3604844373
 C          7.1175497110       -0.3046829064       -1.2223171350
 C          7.6585096383       -0.4622863775        0.1984115704
 H          8.3936609176       -1.2699708374        0.1972652036
 H          8.1768969218        0.4588410990        0.4763834076
 C          6.6127595495       -0.7435007490        1.2744776121
 H          7.1321140945       -0.8190798959        2.2337251088
 H          5.9246391354        0.1011234575        1.3477337212
 C          5.8050605856       -2.0256725994        1.0828835083
 H          5.2152161717       -2.1821687418        1.9902887339
 H          6.4825982869       -2.8750510978        0.9753733805
 C          4.8295292925       -2.0233665526       -0.1067541981
 H          5.3360524704       -2.2812568217       -1.0338796600
 H          4.0720425701       -2.7912061252        0.0765104818
 H          6.8281397010       -1.2687888509       -1.6299410707
 H          7.9338864259        0.0699941472       -1.8458054312
 H          5.7829428440        0.8587813154       -2.4270461825
 H          6.2861043098        1.6588520603       -0.9511668014
 O          3.8972199798        1.5632629562       -0.8064370773
 C          2.5888315811        1.6572917316       -0.3593058859
 O          2.1031011081        2.7968264229       -0.4957748480
 H         -1.3647502278       -1.3616911427        0.4843832305
 C         -1.3879741258       -0.6573889310       -0.3333697097
 C         -0.4560185109        0.3682185767       -0.3990486512
 C         -0.5119531276        1.2556397995       -1.4693412105
 C         -1.4721246924        1.1067027659       -2.4529883377
 C         -2.4097760248        0.0911959445       -2.3761785204
 C         -2.3694294364       -0.7935109320       -1.3062462026
 N         -3.3202939594       -1.8263844772       -1.1815799168
 S         -4.2785558530       -1.8349340812        0.1928757146
 O         -3.4604798711       -2.0404653344        1.3593481486
 O         -5.2988299224       -2.8257288780       -0.0647221096
 C         -5.0078705165       -0.2065382528        0.2234965588
 C         -4.2717566475        0.8501302751        0.7223903951
 C         -4.8115747257        2.1254117467        0.6654542386
 C         -6.0695497028        2.3216793141        0.1167199823
 C         -6.7975662332        1.2493203504       -0.3762323206
 C         -6.2609040624       -0.0271351726       -0.3295612527
 H         -6.7913365141       -0.8898880125       -0.6991184385
 H         -7.7770549731        1.4043711613       -0.7991566975
 H         -6.4841990481        3.3165065128        0.0747608238
 H         -4.2431806745        2.9587162217        1.0462197083
 H         -3.2974147973        0.6654409605        1.1442676061
 H         -3.9053213706       -1.9378842968       -1.9982948732
 H         -3.1642939520       -0.0187905311       -3.1405496050
 H         -1.4979853316        1.7962996782       -3.2829261311
 H          0.2074736892        2.0578919491       -1.5237941082
 C          0.5705140795        0.5129738002        0.6993285081
 H          0.5024906911       -0.3833606481        1.3314016999
 C          0.2413850682        1.7225329283        1.5539766742
 C         -0.8285094541        1.6030978962        2.5961098244
 C          0.6092816470        1.7154255184        3.0056092727
 H          0.9505721644        2.6360022229        3.4544648425
 H          1.0990914169        0.8335489711        3.3928607135
 H         -1.4775853442        2.4476322806        2.7699449236
 H         -1.3110566668        0.6431639579        2.7143054483
 H          0.3303207085        2.6609116534        1.0222686705
 O          2.1915989771       -1.7662332860        0.7178703488
