  62
        -98.93892320
 C          2.0157297967        0.8400169475        0.5175915826
 C          1.9577757262        0.1327975360       -0.7050677169
 C          2.0747379935       -1.3328261490       -0.6182784754
 C          2.1907731335       -1.9090643703        0.5903287188
 C          2.3614004530       -3.3719695017        0.8959248026
 C          3.8518296302       -3.7381291940        1.0037693131
 C          4.5209667169       -4.1147398877       -0.3175045104
 H          5.5898538000       -4.2228532913       -0.1202105996
 H          4.1469389449       -5.0872632872       -0.6437712186
 C          4.3306314949       -3.1103216179       -1.4568379872
 H          4.4541905696       -2.0947654575       -1.0764283682
 H          5.1217034569       -3.2809988646       -2.1894462329
 C          2.9693019458       -3.2410264733       -2.1565029280
 H          2.4954019370       -4.1719452353       -1.8460178141
 H          3.1223203478       -3.3156304938       -3.2351011617
 C          2.0034909750       -2.0691612508       -1.9277977155
 H          2.1774847154       -1.2990543951       -2.6862952175
 H          0.9720207098       -2.4119081619       -2.0667333140
 H          3.9555190752       -4.5823509222        1.6883492865
 H          4.3721522460       -2.8877924544        1.4518375641
 H          1.8566561126       -3.9796872012        0.1507285139
 H          1.8875609254       -3.5419602913        1.8652471405
 O          2.2258439067       -1.1897998300        1.7476953662
 C          2.1265987041        0.1887506707        1.7436624424
 O          2.1556069511        0.7137959800        2.8770767203
 O          1.8264165457        0.6995839805       -1.8226520169
 C          1.8550774826        2.3493066183        0.5230071019
 C          0.5443624422        2.7111555067       -0.1340372487
 C          0.4014916462        3.7534037821       -1.0404376778
 C         -0.8261590549        4.0028011915       -1.6298024549
 C         -1.9264895770        3.2186260667       -1.3384138404
 C         -1.7979364144        2.1860477095       -0.4152827306
 C         -0.5752054379        1.9553853249        0.1906591196
 H         -0.4860327810        1.1482818938        0.9046298420
 N         -2.9018612443        1.3853645995       -0.0704762503
 S         -2.6336755610       -0.2349575536        0.3210850803
 O         -2.2054113431       -0.3183410603        1.6962284269
 O         -1.7766159550       -0.8626587805       -0.6595330247
 C         -4.2998039224       -0.8566169272        0.1788194443
 C         -5.1788157159       -0.6323996098        1.2217397988
 C         -6.4865359829       -1.0752679724        1.1029631726
 C         -6.8918494375       -1.7303873676       -0.0506112923
 C         -5.9980634040       -1.9503632618       -1.0877843584
 C         -4.6888649545       -1.5083530098       -0.9760007569
 H         -3.9565822069       -1.6616287158       -1.7525875872
 H         -6.3147575146       -2.4627915469       -1.9818284630
 H         -7.9101181100       -2.0740638139       -0.1407338269
 H         -7.1832342042       -0.9079721420        1.9084083457
 H         -4.8142544395       -0.1267936157        2.1006947620
 H         -3.6693984145        1.4804370217       -0.7221258673
 H         -2.8765033941        3.3999431725       -1.8176101819
 H         -0.9223249749        4.8098884024       -2.3401615378
 H          1.2540186023        4.3607014647       -1.2969119764
 H          1.8034528912        2.6466072843        1.5814014151
 C          3.0563931998        3.0149075914       -0.1157718038
 C          3.4893067662        4.3798483811        0.3258123615
 C          4.3059261097        3.1789258014        0.6944270209
 H          5.2586620035        3.0310429329        0.2086875703
 H          4.2789225897        2.8326313727        1.7177062638
 H          3.8866553044        5.0590143802       -0.4132689940
 H          2.9150400143        4.8583775421        1.1046463963
 H          3.1673898020        2.7515596450       -1.1613963663
