  62
        -98.92649295
 C         -1.6895636287       -1.5008838051        0.1235044791
 C         -1.8329652171       -0.2402455256       -0.5064080159
 C         -3.2161633189        0.1782383438       -0.7949368246
 C         -4.2427607049       -0.6331165095       -0.4881619501
 C         -5.7025683559       -0.3910511053       -0.7687251182
 C         -6.3538184193        0.7911874355       -0.0256488116
 C         -6.3614019201        2.1067160644       -0.8140269673
 H         -6.3027012894        1.8785839858       -1.8789388589
 H         -7.3183241665        2.6072641091       -0.6528994547
 C         -5.2652398606        3.1114191119       -0.4461530830
 H         -5.2292770742        3.8704049073       -1.2307375731
 H         -5.5390424301        3.6140143344        0.4843691613
 C         -3.8638295805        2.5302051133       -0.2563454568
 H         -3.8084111348        2.0090066903        0.7026558394
 H         -3.1542447593        3.3583167994       -0.1960267740
 C         -3.4166648483        1.5536617794       -1.3614401058
 H         -4.1412964503        1.5337472732       -2.1743332454
 H         -2.4521325000        1.8682009462       -1.7660128557
 H         -7.3887600448        0.5078854453        0.1724877655
 H         -5.8659082031        0.9278270542        0.9390591907
 H         -5.8346366481       -0.2585728637       -1.8449404848
 H         -6.2094277914       -1.3145198676       -0.4813727862
 O         -4.0586610169       -1.8455630488        0.1032275673
 C         -2.7942723185       -2.2950512187        0.4394740851
 O         -2.7828156337       -3.4083625872        1.0041104954
 H          1.6183287092       -0.0380142875        0.0123557476
 C          1.3314968991       -0.1536146102        1.0407951752
 C          0.3776554376       -1.0858037313        1.4236269444
 C         -0.0090791763       -1.1157133453        2.7646534876
 C          0.5351193296       -0.2469174817        3.6889624200
 C          1.5004246929        0.6655039290        3.3038916017
 C          1.8993539921        0.7080647738        1.9731746513
 N          2.9224828998        1.5787405507        1.5906877567
 S          3.3105047873        2.0245408426        0.0355762912
 O          4.3515782058        3.0147028753        0.2284804839
 O          2.1703003077        2.4646181517       -0.7305004615
 C          4.0330825457        0.5664189770       -0.6848251321
 C          3.7621751625        0.2641598021       -2.0038690358
 C          4.3599269089       -0.8485116373       -2.5743224278
 C          5.2171570002       -1.6333024464       -1.8197548655
 C          5.4823420446       -1.3143545239       -0.4965182674
 C          4.8884756371       -0.2028412705        0.0792743573
 H          5.0719117493        0.0743065990        1.1040699869
 H          6.1479582356       -1.9287905398        0.0880968935
 H          5.6800427600       -2.4994212649       -2.2653694300
 H          4.1511937596       -1.0982523412       -3.6019482572
 H          3.0809867646        0.8969226687       -2.5509935872
 H          3.2211259836        2.2497550966        2.2805386401
 H          1.9386411903        1.3412207338        4.0223086754
 H          0.2111376004       -0.2834825966        4.7181439523
 H         -0.7619755913       -1.8293312806        3.0712067878
 C         -0.3259753242       -2.0629584908        0.5129376481
 H         -0.5666506103       -2.9369313981        1.1388036884
 C          0.3892866275       -2.6418688873       -0.7003415550
 C          1.0212902027       -1.8572011391       -1.8083895551
 C          1.8772905931       -2.6625972206       -0.8772468577
 H          2.3286830564       -3.5656880843       -1.2594825824
 H          2.4837984763       -2.1430318614       -0.1528762228
 H          0.8809904024       -2.2234004186       -2.8157943545
 H          1.0123232270       -0.7813759268       -1.7464813479
 H         -0.1373457533       -3.5382309830       -1.0214167986
 O         -0.8736114646        0.5047389500       -0.8257704128
