  62
        -98.93716157
 C          1.2451555006        1.8600479893        0.4991343741
 C          1.5860716548        1.0233836323       -0.5879630351
 C          2.5086727922       -0.0910661687       -0.2969100902
 C          2.8985367603       -0.3025500689        0.9726083500
 C          3.7904948733       -1.3903812971        1.5137989460
 C          3.5170222585       -2.8090612270        0.9895575431
 C          4.6233281920       -3.3409591366        0.0771305757
 H          5.5882753263       -3.0415471338        0.4914762288
 H          4.5908667471       -4.4326542836        0.0874089509
 C          4.5382977723       -2.8897161711       -1.3801708374
 H          5.4594802009       -3.2041782456       -1.8764137312
 H          3.7131059253       -3.4083455494       -1.8724006845
 C          4.3561646539       -1.3855225504       -1.5942752936
 H          4.7064009726       -1.1494593835       -2.6014529696
 H          4.9799860845       -0.8212646334       -0.9024311787
 C          2.8961565726       -0.9216363404       -1.4892671371
 H          2.6466367015       -0.2951558070       -2.3513104197
 H          2.2255890725       -1.7822219375       -1.5438055235
 H          2.5560254851       -2.8322814800        0.4779280166
 H          3.4427927550       -3.4744646972        1.8510951161
 H          3.6525186365       -1.3594957911        2.5969749636
 H          4.8314657812       -1.1172577719        1.3256972472
 O          2.5072612457        0.5079139345        1.9992345516
 C          1.6894882299        1.6028000855        1.7942825034
 O          1.4191177156        2.2480103078        2.8288749136
 O          1.1457289459        1.1920743809       -1.7541198988
 C          0.2998324396        3.0307544451        0.2905617315
 C         -1.0374703865        2.4925747927       -0.1580155137
 C         -1.6809404230        2.8820041444       -1.3238106052
 C         -2.8877968499        2.3040880502       -1.6824942314
 C         -3.4819752225        1.3414855257       -0.8875974310
 C         -2.8500067931        0.9521166610        0.2879393087
 C         -1.6398934017        1.5275208994        0.6413436136
 H         -1.1459799502        1.2233361046        1.5566231511
 N         -3.4506602506       -0.0066424928        1.1284133646
 S         -3.8427356541       -1.5138259468        0.5233585025
 O         -4.7996342966       -1.3580477509       -0.5419222234
 O         -4.2766465187       -2.2787811149        1.6696136966
 C         -2.3315589414       -2.2108568333       -0.1206633335
 C         -1.6524074234       -3.1400108418        0.6422618371
 C         -0.4898920184       -3.7010416330        0.1395397946
 C         -0.0256421115       -3.3173839766       -1.1091505105
 C         -0.7052598836       -2.3653521575       -1.8536531853
 C         -1.8721276249       -1.8058061511       -1.3582310033
 H         -2.4307039136       -1.0733910916       -1.9176362896
 H         -0.3328720093       -2.0535163005       -2.8163051304
 H          0.8675485274       -3.7730633614       -1.5087223533
 H          0.0458496119       -4.4367162734        0.7179829764
 H         -2.0579447510       -3.4192115586        1.6015002476
 H         -2.9741029661       -0.1142693869        2.0124796102
 H         -4.4157633456        0.8778745928       -1.1616410104
 H         -3.3743941416        2.6098155539       -2.5963465437
 H         -1.2345701669        3.6290760776       -1.9586936070
 H          0.1660765924        3.4935485956        1.2790224134
 C          0.9009564525        4.0521230087       -0.6499559056
 C          0.4580711340        5.4819012324       -0.5832064691
 C          1.8207030719        5.0955371500       -0.0938105942
 H          2.6816022114        5.3875543432       -0.6762226748
 H          1.9994135114        5.0842094132        0.9718291627
 H          0.3850504804        6.0439425810       -1.5019086358
 H         -0.2895389266        5.7398186149        0.1516876971
 H          1.1473302958        3.6355507417       -1.6191973797
