  62
        -98.93595363
 C         -2.5338795983       -0.9049453815        0.2874426280
 C         -3.0244794226        0.0958681618        1.1645301758
 C         -3.7618917514        1.2036010503        0.5430992931
 C         -3.9035739391        1.2274049437       -0.7945407050
 C         -4.5914986190        2.3156355375       -1.5657609529
 C         -3.6009092398        3.4082880771       -1.9912063546
 C         -2.7109529066        3.9108265054       -0.8544385662
 H         -2.0512459414        3.1007372541       -0.5345252939
 H         -2.0758833522        4.6996939420       -1.2630848170
 C         -3.4780052419        4.4497208911        0.3613058169
 H         -3.0182539714        5.3883138591        0.6777946652
 H         -4.5079664502        4.6724182693        0.0805917679
 C         -3.4747678090        3.5206076355        1.5767707220
 H         -3.8483585527        4.0836068347        2.4362279205
 H         -2.4493874525        3.2187505772        1.8052573827
 C         -4.3327935862        2.2550587361        1.4529544094
 H         -4.3903598357        1.7952643015        2.4440148641
 H         -5.3437842315        2.5252368518        1.1409537613
 H         -4.1666414482        4.2427795652       -2.4093475959
 H         -2.9578595886        3.0051799896       -2.7769571409
 H         -5.3810939573        2.7445545593       -0.9516792682
 H         -5.0371287023        1.8740936817       -2.4587164528
 O         -3.3842261677        0.2744883614       -1.6076917909
 C         -2.6770247782       -0.8087616772       -1.0980915646
 O         -2.2459000440       -1.5809233487       -1.9726004739
 O         -2.8500350800        0.0654036486        2.4127832307
 C         -1.7769418258       -2.0674033438        0.9046266527
 C         -0.4755928930       -2.2938595911        0.1766589713
 C         -0.1753295592       -3.4572960443       -0.5176547029
 C          1.0414385063       -3.5914718854       -1.1635637295
 C          1.9813611941       -2.5784431451       -1.1317138160
 C          1.6947436261       -1.4115952233       -0.4343496270
 C          0.4766920368       -1.2819448354        0.2152769835
 H          0.2495313961       -0.3706408346        0.7567807069
 N          2.6404057688       -0.3607287829       -0.4035437213
 S          4.1680320136       -0.7459533678        0.2136419329
 O          4.8228387478       -1.6456452080       -0.7001151991
 O          4.0502151099       -1.2062290033        1.5813142617
 C          4.9639281847        0.8469834416        0.1645412862
 C          5.4398342347        1.3070392201       -1.0484682390
 C          6.0457788820        2.5520179347       -1.1007782562
 C          6.1649636539        3.3117209752        0.0537756716
 C          5.6832011457        2.8359695581        1.2638543392
 C          5.0744930266        1.5919337540        1.3227936935
 H          4.6933041546        1.1788283556        2.2431336943
 H          5.7797854501        3.4272447566        2.1602565046
 H          6.6391476616        4.2795333086        0.0110133730
 H          6.4239753338        2.9247644369       -2.0390208706
 H          5.3337102974        0.6784097108       -1.9170058943
 H          2.2808215360        0.4338702907        0.1105660823
 H          2.9330877833       -2.6797025170       -1.6265786041
 H          1.2594311452       -4.4987153957       -1.7068463433
 H         -0.9022223298       -4.2507550573       -0.5724759087
 H         -1.5335568654       -1.7215920382        1.9238521767
 C         -2.6012579457       -3.3350332672        1.0714404682
 C         -4.0826658340       -3.2675110848        1.2886933811
 C         -3.5375663207       -3.8388750946        0.0159584456
 H         -3.6079393068       -4.9061262360       -0.1362699241
 H         -3.6277256360       -3.2626171432       -0.8911350141
 H         -4.5270625228       -3.9389963724        2.0078904526
 H         -4.5492560713       -2.2937046876        1.2533989491
 H         -2.0667779763       -4.0867763299        1.6448202614
