  62
        -98.93411997
 C         -2.3064696240       -0.5786823522        0.3511149201
 C         -3.4876837400       -0.6047141428        1.1343119101
 C         -4.4812062489        0.4518996315        0.8776759148
 C         -4.2014632650        1.3988562506       -0.0339505822
 C         -5.0838082536        2.5312330416       -0.4814203228
 C         -5.8927334279        2.1305763546       -1.7267917153
 C         -7.2201541042        1.4315810518       -1.4355989930
 H         -7.9248999597        2.1571296009       -1.0240239703
 H         -7.6235745876        1.0891058921       -2.3913490044
 C         -7.1357795955        0.2370342878       -0.4817578035
 H         -6.2658518885       -0.3729513738       -0.7323982026
 H         -8.0204362797       -0.3823882567       -0.6419766719
 C         -7.0782311937        0.6477433803        0.9972429456
 H         -7.3335985663        1.7036933441        1.0836638945
 H         -7.8401416994        0.0987174779        1.5544638288
 C         -5.7389542558        0.3814062352        1.7001857935
 H         -5.6391270036        1.0661206574        2.5491013686
 H         -5.7414299515       -0.6306944222        2.1171550273
 H         -6.1048357119        3.0284678755       -2.3107661752
 H         -5.2624099233        1.4829013565       -2.3417416458
 H         -4.4190491928        3.3552924576       -0.7486750488
 H         -5.7360698660        2.8541516215        0.3244908907
 O         -3.0357706540        1.4145894339       -0.7340275861
 C         -2.0623608215        0.4389145142       -0.5727136702
 O         -1.0651905019        0.6046719468       -1.2980478150
 O         -3.7072076638       -1.4806822624        2.0138488765
 C         -1.2781885187       -1.6673151741        0.6051785595
 C          0.0853161469       -1.0575960635        0.8044576596
 C          0.3642241865       -0.4012084576        1.9997223796
 C          1.5957369714        0.1888156216        2.2110036028
 C          2.5734876318        0.1427925213        1.2326946595
 C          2.3052242442       -0.5079272161        0.0365092485
 C          1.0712672560       -1.1124197481       -0.1673021532
 H          0.8679152595       -1.5992334858       -1.1086025293
 N          3.2823041652       -0.5352115219       -0.9705350167
 S          4.8558544959       -0.9495903073       -0.5796180565
 O          5.4358774864       -1.4410272641       -1.8106512885
 O          4.9017532404       -1.8466020542        0.5522588726
 C          5.6204279923        0.6025245745       -0.1592685301
 C          6.2729734700        0.7447334375        1.0495378256
 C          6.8701193979        1.9591367683        1.3501827091
 C          6.8054275032        3.0036961744        0.4409178885
 C          6.1485238557        2.8437440462       -0.7701860859
 C          5.5500055462        1.6322520177       -1.0768752226
 H          5.0310529639        1.4681686788       -2.0066536564
 H          6.0996033145        3.6583629856       -1.4747839701
 H          7.2696150296        3.9482611317        0.6769995241
 H          7.3813828174        2.0855732523        2.2909805077
 H          6.2931533657       -0.0932681810        1.7280730790
 H          2.9795028057       -0.9736368355       -1.8273575069
 H          3.5341065331        0.6065157521        1.3870652382
 H          1.7967156434        0.6939835912        3.1436046144
 H         -0.4027478981       -0.3549645339        2.7608808740
 H         -1.5907115029       -2.1161468576        1.5623153910
 C         -1.2841957265       -2.7935662489       -0.4178555464
 C         -2.5721576426       -3.2686034905       -1.0191497299
 C         -1.5564129948       -2.5763951999       -1.8751063233
 H         -1.0029098542       -3.1682517636       -2.5902010347
 H         -1.7582489016       -1.5703191647       -2.2074772679
 H         -2.7213308050       -4.3298611009       -1.1490910515
 H         -3.4705211984       -2.7294198614       -0.7561417097
 H         -0.5554342041       -3.5606448629       -0.1710845337
