  62
        -98.93738980
 C          1.8309007988       -1.4157603288       -0.3361825287
 C          2.5476204782       -0.8651169905        0.7530079381
 C          3.7470803526       -0.0845031477        0.4063426958
 C          4.0813554152        0.0680726836       -0.8879019649
 C          5.2228828952        0.8979328468       -1.4030953183
 C          4.8470959840        2.3931232122       -1.3643550302
 C          5.6803451344        3.2270975232       -0.3910726669
 H          6.6674079450        3.3985090474       -0.8256346364
 H          5.1912079744        4.1984909921       -0.2911742559
 C          5.8800112171        2.6235836289        1.0025034636
 H          6.6653704613        1.8671900000        0.9657904307
 H          6.2497845879        3.4250277335        1.6455941255
 C          4.6345435022        2.0064162976        1.6521948505
 H          3.7256823807        2.4464377925        1.2403987116
 H          4.6500362484        2.2519240732        2.7160720889
 C          4.5508701737        0.4719911033        1.5487664610
 H          5.5605406845        0.0526689554        1.5237330602
 H          4.0575562144        0.0896604856        2.4474339850
 H          4.9554785094        2.8222706741       -2.3617028161
 H          3.7900986688        2.4747513470       -1.1011125345
 H          6.1124423213        0.7110630295       -0.8057935852
 H          5.4175175764        0.5820839144       -2.4282666264
 O          3.3536938369       -0.4602209718       -1.9069136411
 C          2.2128603370       -1.2066156658       -1.6601778847
 O          1.6312271886       -1.6143364868       -2.6867362809
 H         -0.1999012655        0.1950772229       -0.7771599483
 C         -0.7397626998       -0.1439807654        0.0990053332
 C         -0.4587952297       -1.4023618729        0.6183723415
 C         -1.1709564943       -1.8326208632        1.7295075811
 C         -2.1131982819       -1.0078868749        2.3212391088
 C         -2.3740063780        0.2513734682        1.8148679809
 C         -1.6819686087        0.6830207204        0.6896018486
 N         -1.9575344108        1.9515627937        0.1504501563
 S         -3.5647538108        2.3872505435       -0.0227150730
 O         -3.5885749798        3.3181529214       -1.1292256651
 O         -4.0680822422        2.8902818285        1.2310066821
 C         -4.4141837403        0.8775453451       -0.4510055458
 C         -5.4098442234        0.3893335284        0.3701648206
 C         -6.0301259505       -0.8037084020        0.0351044908
 C         -5.6421683280       -1.4865437975       -1.1069598676
 C         -4.6427305365       -0.9808096281       -1.9244194580
 C         -4.0211492561        0.2126214369       -1.5957173369
 H         -3.2433043957        0.6326129907       -2.2137051071
 H         -4.3409947142       -1.5124647943       -2.8127022893
 H         -6.1205218045       -2.4183448683       -1.3641098220
 H         -6.8091330147       -1.1982594207        0.6671808524
 H         -5.6765487022        0.9504217652        1.2508429635
 H         -1.4281622639        2.1675972188       -0.6810228507
 H         -3.0922289109        0.9110636329        2.2740684955
 H         -2.6501003171       -1.3503379682        3.1924165852
 H         -0.9818306369       -2.8103403768        2.1402629537
 C          0.5821582632       -2.2415667954       -0.0830514856
 H          0.1888711215       -2.5053165295       -1.0758550300
 C          0.9352132867       -3.5162401622        0.6540382973
 C          0.1058395580       -4.7499630718        0.4668316101
 C          1.4792589479       -4.6730221623       -0.1273295586
 H          2.2679350759       -5.2661322780        0.3107340156
 H          1.5708444383       -4.5493208883       -1.1969350888
 H         -0.0475731255       -5.4016993985        1.3136159469
 H         -0.7385261969       -4.6884740052       -0.2027565923
 H          1.3643666393       -3.3272083766        1.6310000852
 O          2.2067786978       -1.0171651905        1.9545422016
