  62
        -98.94021533
 C         -2.4428527071       -0.9068983602        0.0672495562
 C         -2.6629922548        0.4836534784        0.2142850857
 C         -4.0390081306        0.8796221651        0.5488756647
 C         -4.9779339905       -0.0703205256        0.7126649673
 C         -6.4266249712        0.1955595437        1.0007969441
 C         -7.2396520807        0.3024326935       -0.2969409990
 C         -6.6231700632        1.2391143413       -1.3358714117
 H         -5.6764371301        0.8162868778       -1.6799947428
 H         -7.2965963268        1.2599375110       -2.1954486328
 C         -6.3857489079        2.6714056920       -0.8372426286
 H         -6.9817776841        2.8561042545        0.0571306369
 H         -6.7266606263        3.3701161755       -1.6041183106
 C         -4.9215167943        3.0077384369       -0.5482825679
 H         -4.8408022362        4.0899621485       -0.4158814766
 H         -4.3060719858        2.7374138734       -1.4101646762
 C         -4.3184660144        2.3486725501        0.6987395641
 H         -3.3484015907        2.8181396719        0.8871570542
 H         -4.9630655121        2.5331251471        1.5604930078
 H         -7.3189754926       -0.6935540491       -0.7386081499
 H         -8.2454499962        0.6447045027       -0.0469368471
 H         -6.8161256430       -0.6319962946        1.5959478410
 H         -6.5144705522        1.1162477383        1.5741280111
 O         -4.7207531132       -1.3978395001        0.5867553861
 C         -3.4544201382       -1.8484537915        0.2537945812
 O         -3.3555245539       -3.0893111192        0.1638102848
 O         -1.7602016213        1.3499091589        0.0752574250
 C         -1.0621080458       -1.4172332236       -0.3000422461
 C         -0.0393180864       -0.9548877200        0.7094956452
 C         -0.3170205593       -1.0978699821        2.0669985592
 C          0.6002975651       -0.7040897530        3.0212202333
 C          1.8231520322       -0.1768398202        2.6442532621
 C          2.1119059571       -0.0331178093        1.2930884386
 C          1.1830361483       -0.4203045619        0.3363149671
 H          1.4367153506       -0.2971951303       -0.7031395042
 N          3.3351082284        0.5159013900        0.8759409618
 S          4.0512776943       -0.0916629599       -0.5268939562
 O          3.4899034278        0.5806273666       -1.6713586733
 O          3.9794836991       -1.5354281040       -0.5344005441
 C          5.7363914913        0.4415911558       -0.2851394530
 C          6.6626679261       -0.4481385185        0.2254784396
 C          7.9626318806       -0.0156490509        0.4359407391
 C          8.3117547852        1.2926553025        0.1366733673
 C          7.3713507651        2.1739834671       -0.3762010897
 C          6.0702517798        1.7477808928       -0.5903835135
 H          5.3084762987        2.3934949994       -0.9953829406
 H          7.6472652103        3.1894806616       -0.6105511868
 H          9.3239181425        1.6268758708        0.3012003704
 H          8.6968331425       -0.6992847923        0.8307907226
 H          6.3477626391       -1.4577760689        0.4351617069
 H          4.0029076215        0.6080792995        1.6290705159
 H          2.5424064011        0.1270154833        3.3896212186
 H          0.3660935215       -0.8168941329        4.0692667247
 H         -1.2684214801       -1.5204296801        2.3622462981
 H         -1.1166981818       -2.5152075300       -0.2448297033
 C         -0.7228127714       -1.0209610318       -1.7220064956
 C          0.2135850562       -1.8596250263       -2.5370712449
 C         -1.2504644536       -1.8445764975       -2.8565038070
 H         -1.5781641150       -1.3394830425       -3.7527199378
 H         -1.8382717798       -2.7153924704       -2.6040903834
 H          0.8981330435       -1.3618582805       -3.2081681809
 H          0.6268009793       -2.7426097104       -2.0723822641
 H         -0.6890756634        0.0547537043       -1.8571320028
