  62
        -98.93783876
 C         -2.3021940575       -0.5556190166        0.8338579688
 C         -3.4430539056       -0.9706795146        0.1036277431
 C         -4.6300251558       -0.1130787333        0.2285780966
 C         -4.5946109780        0.9829680920        1.0062070468
 C         -5.7287945764        1.9427323803        1.2431998810
 C         -5.8743106350        3.0177108875        0.1573052981
 C         -6.4234259302        2.5210395351       -1.1807142347
 H         -7.3466246092        1.9664429342       -1.0098398277
 H         -6.6783359493        3.4042794238       -1.7697808989
 C         -5.4430697269        1.6571350143       -1.9864635506
 H         -4.4303079022        1.7982675038       -1.6015051883
 H         -5.4375272387        1.9871415594       -3.0277805229
 C         -5.7679842249        0.1634263723       -1.9862222128
 H         -4.9915845129       -0.3558029210       -2.5536720656
 H         -6.7225350332       -0.0044097889       -2.4899643570
 C         -5.8355069191       -0.4675690982       -0.5894105483
 H         -6.7463460123       -0.1558612204       -0.0790125844
 H         -5.8517222264       -1.5540643064       -0.7043192839
 H         -4.9010956003        3.4883272957       -0.0003467550
 H         -6.5538836960        3.7807669555        0.5438725758
 H         -5.5212129495        2.4392732820        2.1934921638
 H         -6.6635868918        1.3893913747        1.3371401107
 O         -3.4847973849        1.3427756060        1.7040388485
 C         -2.3208285608        0.5996440104        1.6229412860
 O         -1.3793539226        1.0588797500        2.3015797980
 O         -3.4981375737       -1.9983383567       -0.6228170515
 C         -0.9816656835       -1.3080403344        0.8280556311
 C         -0.1487049888       -0.9905143850       -0.3915598199
 C         -0.6219345707       -1.2235287167       -1.6783002183
 C          0.1735735208       -0.9472447116       -2.7748575740
 C          1.4580001527       -0.4602979740       -2.6086123667
 C          1.9421244275       -0.2266275875       -1.3270146024
 C          1.1305982740       -0.4780611430       -0.2295624302
 H          1.5082851169       -0.2844893030        0.7622085951
 N          3.2418154766        0.2892030744       -1.1345485589
 S          4.3417506281       -0.5559844405       -0.1717672661
 O          4.9143252933       -1.6432221743       -0.9407719166
 O          3.7287177273       -0.9176279557        1.0786161814
 C          5.5693868036        0.7074557740        0.0900062430
 C          5.2562965071        1.7447984129        0.9471186814
 C          6.1897559850        2.7477119580        1.1530743817
 C          7.4134024800        2.6968275155        0.5012788127
 C          7.7126636199        1.6491770321       -0.3560145275
 C          6.7827008602        0.6429061844       -0.5667513994
 H          6.9748774804       -0.1942457068       -1.2182369274
 H          8.6652499644        1.6122683392       -0.8595066620
 H          8.1379497153        3.4789339256        0.6646089980
 H          5.9599072480        3.5632936027        1.8198480699
 H          4.2959094015        1.7409784520        1.4369021222
 H          3.6973236357        0.4812580821       -2.0185904465
 H          2.0825220357       -0.2583681236       -3.4664854220
 H         -0.2056371043       -1.1251194119       -3.7700564662
 H         -1.6165585377       -1.6209833041       -1.8088050391
 H         -0.4288719737       -0.9436940812        1.7048623165
 C         -1.1407334201       -2.8115512225        0.9610856267
 C          0.0424294606       -3.6217950295        1.3945818820
 C         -1.1208532361       -3.4359964537        2.3216898547
 H         -1.7692685772       -4.2781532838        2.5115447041
 H         -0.9950243115       -2.7805718041        3.1715407800
 H          0.1931429408       -4.5924971255        0.9471304796
 H          0.9603315995       -3.0937759912        1.6110145595
 H         -1.8040967229       -3.2410292321        0.2221353470
