  62
        -98.93347454
 C         -1.8399340366       -0.7358847102        0.6099825030
 C         -2.2343413622        0.6278447784        0.7546870138
 C         -3.6565987406        0.9368091760        0.5869938543
 C         -4.5248386354       -0.0568118660        0.3311381755
 C         -6.0161487346        0.0759587094        0.1856294580
 C         -6.4741448328        0.4941363486       -1.2180416987
 C         -6.1878678478        1.9503183402       -1.5863964531
 H         -6.7492832495        2.1666958632       -2.4975027852
 H         -6.5738387385        2.6041554422       -0.8036718183
 C         -4.7048211189        2.2597056889       -1.8346276032
 H         -4.1594753456        1.3264034194       -1.9931394068
 H         -4.6039054691        2.8473465360       -2.7498714265
 C         -4.0237266108        3.0461545349       -0.7143565633
 H         -2.9712277293        3.1758169427       -0.9787707979
 H         -4.4763536066        4.0371064070       -0.6355585007
 C         -4.0862793876        2.3707231186        0.6619074102
 H         -5.0940832633        2.4430906686        1.0708165720
 H         -3.3972271342        2.8905762612        1.3316762664
 H         -6.0044549747       -0.1665599570       -1.9503967652
 H         -7.5535007666        0.3332256675       -1.2696741180
 H         -6.3922601766        0.7893456392        0.9197483687
 H         -6.4384914333       -0.9066846110        0.4070410268
 O         -4.1205485512       -1.3429814402        0.1946880005
 C         -2.7851957289       -1.7168288975        0.2984668072
 O         -2.6235695117       -2.9344135982        0.0869673471
 O         -1.4248018300        1.5551373804        1.0251981427
 C         -0.3572433445       -0.9819616058        0.8300805537
 C          0.4555018572       -1.3824167047       -0.3810312234
 C          0.0485521630       -2.3420110845       -1.2992357530
 C          0.8705788920       -2.6907988514       -2.3568926332
 C          2.1210034212       -2.1188873419       -2.5030451311
 C          2.5454834866       -1.1679546152       -1.5824364600
 C          1.7046042793       -0.7946697156       -0.5451234318
 H          2.0348537828       -0.0418874655        0.1547005473
 N          3.8081612201       -0.5677500492       -1.6940599131
 S          4.7263153441       -0.2994882200       -0.3185501147
 O          6.0916990806       -0.2605349585       -0.7968232187
 O          4.4368046005       -1.2702701539        0.7102642339
 C          4.2577371755        1.3322847420        0.2153288181
 C          4.3951189206        2.3762496929       -0.6780331512
 C          4.0481333396        3.6544078689       -0.2716622003
 C          3.5735839250        3.8663395470        1.0141675873
 C          3.4450490130        2.8084605681        1.9006783676
 C          3.7912565558        1.5276925255        1.4998685883
 H          3.7033106170        0.6765308315        2.1571879528
 H          3.0732902941        2.9739632467        2.8992447716
 H          3.3011575575        4.8614291786        1.3287509547
 H          4.1465253170        4.4808523839       -0.9569883592
 H          4.7719038769        2.1722534188       -1.6663506905
 H          4.3731071670       -0.9097273347       -2.4577682028
 H          2.7658300233       -2.4066508693       -3.3197320324
 H          0.5368337025       -3.4327180026       -3.0668827921
 H         -0.9082334053       -2.8220910548       -1.1764681885
 H          0.0059396461        0.0168505105        1.1226408097
 C          0.0424840581       -1.8978065059        1.9863212465
 C         -0.8651374688       -2.1798555923        3.1434686873
 C         -0.4813120047       -3.2828880989        2.2030266403
 H          0.2135303318       -4.0342553389        2.5497420518
 H         -1.2317548464       -3.6534511605        1.5254493987
 H         -0.4514015544       -2.1731877202        4.1410004424
 H         -1.8766490740       -1.8033170898        3.0845696858
 H          1.0938584334       -1.7583696436        2.2277716223
