  62
        -98.94273523
 C          1.1127686490        1.6842233085       -0.3261373296
 C         -0.0507175884        1.6862497188       -1.1260017491
 C         -1.2659852907        2.2666420722       -0.5288951396
 C         -1.2327105710        2.6877463309        0.7491053583
 C         -2.2929714100        3.3269689520        1.6222635218
 C         -3.7414657028        3.4153527246        1.1521524852
 C         -4.4770205817        2.0758257737        1.1140151758
 H         -4.6504116065        1.7489861656        2.1426808345
 H         -5.4512690273        2.2318706682        0.6452854358
 C         -3.7554906352        0.9400699844        0.3917705554
 H         -4.3832159388        0.0477546075        0.4785694948
 H         -2.8120440278        0.7136933550        0.8958904093
 C         -3.4872451169        1.1759293935       -1.0928164190
 H         -4.4261565225        1.3981142693       -1.6044265659
 H         -3.0863166429        0.2468802119       -1.5061082228
 C         -2.4808497574        2.2916108784       -1.4127916475
 H         -2.1169366542        2.1308197743       -2.4320171668
 H         -2.9545784383        3.2700573056       -1.3848504843
 H         -4.2639763894        4.0562774670        1.8675752315
 H         -3.7931502171        3.9125295954        0.1880169868
 H         -2.2569792231        2.7870150235        2.5744807857
 H         -1.9306330715        4.3400638181        1.8297940189
 O         -0.0937981811        2.6227205537        1.4996702460
 C          1.0913680370        2.1166362008        0.9981716362
 O          2.0356719401        2.1173658701        1.8120429480
 O         -0.0750066990        1.2286371798       -2.3015667712
 C          2.3954942798        1.0887049125       -0.8800497352
 C          2.7704533583       -0.1070670676       -0.0406347638
 C          4.0336416026       -0.3205970610        0.4931738519
 C          4.2674392434       -1.4116052960        1.3135291128
 C          3.2534507543       -2.2981138829        1.6248285342
 C          1.9899171010       -2.1031337311        1.0762420291
 C          1.7688305585       -1.0320543294        0.2284178458
 H          0.7849226294       -0.8766122560       -0.1899633583
 N          0.9411594436       -2.9946264654        1.3422184326
 S         -0.6575094301       -2.5231540194        1.2590836260
 O         -0.8548057197       -1.1468334494        1.6543894019
 O         -1.3644988085       -3.5066681769        2.0545955911
 C         -1.1218431011       -2.7512350728       -0.4468201023
 C         -2.4133157460       -2.4002112837       -0.7871470634
 C         -2.8423964174       -2.5820404296       -2.0919077196
 C         -1.9738185751       -3.1113256715       -3.0336242382
 C         -0.6825155733       -3.4640455822       -2.6759125598
 C         -0.2487246454       -3.2880639199       -1.3706300858
 H          0.7522047240       -3.5516396097       -1.0717957520
 H         -0.0075074841       -3.8745291401       -3.4096787856
 H         -2.3055384677       -3.2476465552       -4.0507611905
 H         -3.8481577091       -2.3079760193       -2.3683936284
 H         -3.0525681274       -1.9879795795       -0.0226421271
 H          1.1094358329       -3.6714471685        2.0706597579
 H          3.4307024350       -3.1304880769        2.2884944692
 H          5.2506648655       -1.5626550642        1.7327249207
 H          4.8297019751        0.3750609660        0.2849192468
 H          2.1448684992        0.7403185899       -1.8929119387
 C          3.4837801776        2.1358602258       -0.9744611213
 C          4.5742133516        1.9996092946       -1.9939048369
 C          3.5143073979        3.0445724614       -2.1655129790
 H          3.7788121797        4.0805668576       -2.0160980750
 H          2.7604878689        2.8919407608       -2.9239548734
 H          5.5702569387        2.3209495257       -1.7293910184
 H          4.5452950365        1.1382771936       -2.6436620850
 H          3.7308337220        2.5657397900       -0.0101952158
