  62
        -98.92852443
 C         -2.4127383471       -0.0506336192        0.6403708566
 C         -3.4333290796       -0.7342804976       -0.0619299253
 C         -4.6140211957        0.0666846886       -0.4474656721
 C         -4.6639926151        1.3757378315       -0.1427310675
 C         -5.7013016508        2.4345815969       -0.4540638395
 C         -7.1045051990        2.0452289550       -0.9124071295
 C         -7.9446439913        1.3220678775        0.1392770311
 H         -8.8849210913        1.0182061840       -0.3260448714
 H         -8.1823174536        2.0268043333        0.9401413529
 C         -7.2899195981        0.1003423220        0.7791207990
 H         -7.9992812402       -0.3214687979        1.4964313036
 H         -6.4083433531        0.4102945439        1.3440654598
 C         -6.8926051892       -1.0114679388       -0.1902164792
 H         -7.7554548412       -1.2976753134       -0.7946914451
 H         -6.6007608250       -1.8793272304        0.4072961752
 C         -5.7200247095       -0.6841955370       -1.1317812215
 H         -6.0580714185       -0.1468728236       -2.0147085013
 H         -5.2853504030       -1.6293934707       -1.4699430081
 H         -7.0544694298        1.4602899891       -1.8260482257
 H         -7.6189961158        2.9774231400       -1.1615220315
 H         -5.7777160922        3.0482507804        0.4491291469
 H         -5.2517010974        3.0731108102       -1.2227003040
 O         -3.6432843507        1.9964093762        0.5196528544
 C         -2.5150257068        1.3119952054        0.9267691570
 O         -1.6834402798        2.0146357575        1.5367876947
 H          1.3752586281        0.2536076816        1.3075337254
 C          1.1714413912       -0.1365576407        0.3192657323
 C         -0.0793889312       -0.6687547880        0.0443428125
 C         -0.3342389450       -1.1499027157       -1.2361328323
 C          0.6450605957       -1.0966561470       -2.2110448234
 C          1.8900995158       -0.5590083419       -1.9352774806
 C          2.1537424189       -0.0719516168       -0.6622068979
 N          3.4068484452        0.5013288421       -0.3799439673
 S          4.7783277878       -0.3078841016       -0.9465181895
 O          4.9523512132        0.0077359349       -2.3418039127
 O          4.6895036263       -1.7144634337       -0.6232527086
 C          6.0558925033        0.4767960930        0.0151804893
 C          6.5030152941       -0.1307057814        1.1731347782
 C          7.4804393921        0.5007088379        1.9262014054
 C          7.9883149382        1.7230081082        1.5123983189
 C          7.5292984640        2.3200426474        0.3475351877
 C          6.5532897708        1.6937003390       -0.4109475445
 H          6.1731310856        2.1149322356       -1.3269216298
 H          7.9286972799        3.2691106356        0.0282202757
 H          8.7490332248        2.2120013530        2.1002085593
 H          7.8418347361        0.0378882423        2.8303946328
 H          6.0870144604       -1.0857779767        1.4516644501
 H          3.5051146836        0.7406280310        0.5974228484
 H          2.6606346936       -0.5150384545       -2.6879285881
 H          0.4373082802       -1.4774620324       -3.2000646118
 H         -1.3040195182       -1.5703099913       -1.4551807975
 C         -1.1341351508       -0.7176289587        1.1204219015
 H         -0.7826900451       -0.0891887511        1.9541891544
 C         -1.3585321901       -2.1171215554        1.6775175548
 C         -0.8441452368       -3.3655908712        1.0331537998
 C         -0.2128506102       -2.8640319460        2.2947479961
 H         -0.3798077752       -3.4055961186        3.2134595236
 H          0.7687297848       -2.4205447087        2.2141319828
 H         -0.2840065751       -3.2780030578        0.1155134794
 H         -1.4713982240       -4.2428193157        1.0756809397
 H         -2.3165607897       -2.2011962588        2.1799999955
 O         -3.3839251640       -1.9517440319       -0.3718201303
