  62
        -98.94443252
 C          1.9472436911        1.0812723743       -0.2091041179
 C          2.4397375943       -0.0837863028       -0.8443828185
 C          3.8961989022       -0.2770776507       -0.7810481354
 C          4.6593314415        0.6462504527       -0.1681762408
 C          6.1460963113        0.5484113972        0.0115695031
 C          6.5013209413       -0.1364700055        1.3387491271
 C          5.7504126744       -1.4463561018        1.5781233520
 H          4.6857953565       -1.2316316746        1.6957524534
 H          6.1030162375       -1.8544627691        2.5278057676
 C          5.9340553070       -2.4946858482        0.4719596121
 H          6.1206731012       -3.4651514713        0.9366297375
 H          6.8105164693       -2.2498330016       -0.1291311490
 C          4.7225686823       -2.6667677883       -0.4464539001
 H          3.8230342688       -2.8190827915        0.1556906327
 H          4.8734018622       -3.5708731384       -1.0424957898
 C          4.4567187948       -1.5144775044       -1.4234884018
 H          3.6971036252       -1.8515029524       -2.1351454563
 H          5.3685666820       -1.2836391353       -1.9781697516
 H          6.2640187738        0.5485123230        2.1559794352
 H          7.5765929277       -0.3233685252        1.3535221686
 H          6.5715113724       -0.0072941101       -0.8217304647
 H          6.5595309351        1.5583509757        0.0120142750
 O          4.1504619946        1.7652673079        0.4080409214
 C          2.7862287630        2.0044371561        0.4147268838
 O          2.4489261051        3.0534566517        0.9998211268
 H         -1.6871803529       -0.0861222455       -1.2102862191
 C         -1.3540997733       -0.4164194787       -0.2413358457
 C         -0.2896793382        0.2022425114        0.3938679268
 C          0.1107446316       -0.2739910367        1.6405984787
 C         -0.5218064875       -1.3547678641        2.2216615574
 C         -1.5788462235       -1.9763665670        1.5791684180
 C         -1.9932573963       -1.5044515975        0.3404872545
 N         -3.0535958364       -2.1258548351       -0.3387896743
 S         -4.2494788920       -1.2090148406       -1.0608162811
 O         -5.3324544212       -2.1406045366       -1.2862807812
 O         -3.7363666946       -0.5350010599       -2.2251482721
 C         -4.7134743868       -0.0287633053        0.1926639030
 C         -4.1901558399        1.2475097484        0.1618916149
 C         -4.5076876809        2.1250219704        1.1868836959
 C         -5.3369828728        1.7134059676        2.2184601609
 C         -5.8593036869        0.4287466621        2.2318897245
 C         -5.5424125807       -0.4540735864        1.2127657691
 H         -5.9359794882       -1.4571118465        1.1801973950
 H         -6.5084098890        0.1138067292        3.0329688489
 H         -5.5793913559        2.3995122069        3.0146371253
 H         -4.1042618289        3.1251195718        1.1767804359
 H         -3.5530447390        1.5326624158       -0.6587972843
 H         -3.4520878927       -2.9164328663        0.1462635525
 H         -2.0691235314       -2.8274434748        2.0268499883
 H         -0.1921626075       -1.7175165838        3.1836520590
 H          0.9382023441        0.2112521052        2.1409826328
 C          0.4559961830        1.3689784246       -0.2060112769
 H          0.3173877243        2.2407446818        0.4501248091
 C         -0.0039116500        1.7343059516       -1.6016436292
 C         -1.1466973952        2.6832827656       -1.7956750138
 C          0.2518962541        3.1194346480       -2.1117236408
 H          0.5359221678        3.2435026407       -3.1459603739
 H          0.7360286055        3.8128132554       -1.4391712460
 H         -1.6068883111        3.0951189953       -0.9099294838
 H         -1.8311073115        2.5064753180       -2.6125627335
 H          0.1085853626        0.9188849357       -2.3075207815
 O          1.7056354792       -0.9202367963       -1.4325459233
