  62
        -98.93328741
 C         -2.2753524562        0.3010932267       -0.1693150778
 C         -3.4418314450        0.7453287648       -0.8352207818
 C         -4.6722968448       -0.0116245251       -0.5615646222
 C         -4.6188962024       -1.0666837657        0.2720685625
 C         -5.7971140715       -1.8876659906        0.7138137104
 C         -6.5965326166       -1.1241980265        1.7891882371
 C         -8.0079075449       -0.7233690822        1.3594876030
 H         -8.6505362237       -1.6058724740        1.3850593791
 H         -8.3873537383       -0.0177647258        2.1016201358
 C         -8.1288847814       -0.0961551528       -0.0326829402
 H         -9.1153773909        0.3691296360       -0.0870010535
 H         -8.1127229836       -0.8800650798       -0.7912570581
 C         -7.0691450904        0.9540572585       -0.3899145118
 H         -7.5589496161        1.7546930386       -0.9478958260
 H         -6.6534908238        1.4043297993        0.5117502519
 C         -5.9210016446        0.4311265392       -1.2733565781
 H         -6.2882718699       -0.3815039699       -1.9062035177
 H         -5.5931071481        1.2392622879       -1.9339243040
 H         -6.0314414458       -0.2316923721        2.0660490420
 H         -6.6739403096       -1.7371619991        2.6884075594
 H         -6.4280369332       -2.1161761072       -0.1422213077
 H         -5.4075839851       -2.8209177034        1.1206910443
 O         -3.4745007326       -1.4705949232        0.8833643153
 C         -2.2754723993       -0.8030882997        0.6820450291
 O         -1.3094433921       -1.2837404188        1.3039115295
 H          1.6249305810        0.5859932598        0.4532687045
 C          1.3439025909        0.0032873757       -0.4076119248
 C          0.0748127963        0.1097789182       -0.9521137550
 C         -0.2392613059       -0.6649876921       -2.0667116806
 C          0.6903847453       -1.5280873802       -2.6119916378
 C          1.9594797208       -1.6271191404       -2.0684668949
 C          2.2835723673       -0.8586175092       -0.9575718742
 N          3.5544059211       -0.9536910356       -0.3681076769
 S          4.2424781413        0.4357111541        0.2986284876
 O          3.7394458409        0.6183667374        1.6367327409
 O          4.0776108139        1.5522946244       -0.6047431819
 C          5.9556175363       -0.0573755122        0.3641027516
 C          6.8139722312        0.3333293464       -0.6463718007
 C          8.1359910427       -0.0808068132       -0.6007238845
 C          8.5742513771       -0.8766952528        0.4469407841
 C          7.7014081326       -1.2596215010        1.4547565346
 C          6.3787019549       -0.8480912673        1.4159364974
 H          5.6668762346       -1.1129042211        2.1804916727
 H          8.0464239497       -1.8752312498        2.2697652111
 H          9.6033220724       -1.1979149523        0.4804192200
 H          8.8177024709        0.2183465165       -1.3805060313
 H          6.4308722828        0.9592848930       -1.4362039279
 H          4.2158297648       -1.4633437550       -0.9378145181
 H          2.6876424620       -2.3001346335       -2.4950791436
 H          0.4292122021       -2.1243392711       -3.4735145084
 H         -1.2283394007       -0.5810546529       -2.4968493503
 C         -0.9719734996        1.0437910049       -0.3973477262
 H         -1.1949013528        1.7989173591       -1.1666076833
 C         -0.5389124595        1.7547140078        0.8671198898
 C          0.3306427926        2.9725522607        0.7862709964
 C         -1.1086213277        3.1039452935        1.1820920748
 H         -1.3422222931        3.3379604129        2.2098746930
 H         -1.7982784129        3.5293157319        0.4677033731
 H          1.0930307323        3.1100228595        1.5389394014
 H          0.6250459242        3.3114145666       -0.1958587100
 H         -0.3808483334        1.0722546061        1.6956839030
 O         -3.4515616864        1.7262262333       -1.6277163314
