  62
        -98.94227138
 C          2.4994058665        0.0476655397       -0.1406875302
 C          1.5334579856        0.3765987437        0.8402079559
 C          1.0977662888        1.7793904155        0.8821383200
 C          1.5964972395        2.6502843622       -0.0122146368
 C          1.1340900177        4.0672683825       -0.1949671905
 C         -0.1973697287        4.0695525713       -0.9752981049
 C         -1.3944590797        4.5941822685       -0.1817683259
 H         -1.3268518055        5.6824086980       -0.1127299014
 H         -2.2912472374        4.3524029549       -0.7567899933
 C         -1.5480750268        4.0390494757        1.2376210575
 H         -0.8741698615        4.5691789867        1.9127563508
 H         -2.5641557746        4.2725556081        1.5624737530
 C         -1.3159321496        2.5304989874        1.3927514515
 H         -1.4875944024        2.0154070611        0.4463613571
 H         -2.0489291423        2.1422346188        2.1035817143
 C          0.0803902603        2.1526979499        1.9241758621
 H          0.4712049241        2.9647551822        2.5435713344
 H         -0.0158609217        1.2671159001        2.5585269711
 H         -0.0907478744        4.6769029460       -1.8760845821
 H         -0.4036996801        3.0492106210       -1.3096889042
 H          1.0130987501        4.5478473418        0.7733817215
 H          1.9049566378        4.5960902403       -0.7562521939
 O          2.5303931085        2.3041359286       -0.9359532274
 C          2.9762358972        0.9973227084       -1.0452211276
 O          3.7868332620        0.8084613009       -1.9760800054
 O          1.0397436499       -0.4595818460        1.6421008579
 C          2.9229409883       -1.3944045036       -0.3753400574
 C          1.6811562479       -2.2539896993       -0.3874089007
 C          1.5101154636       -3.4023762941        0.3734416642
 C          0.3124572196       -4.0968954810        0.3320477526
 C         -0.7441288004       -3.6471286546       -0.4382585914
 C         -0.5803802882       -2.4991311484       -1.2057399891
 C          0.6361425878       -1.8396863069       -1.2053733980
 H          0.7512707658       -0.9516921180       -1.8109044942
 N         -1.6311275275       -1.9702305338       -1.9851404597
 S         -2.2034071278       -0.4466826523       -1.5793741212
 O         -3.2403019770       -0.1656591224       -2.5499314573
 O         -1.1149324877        0.4949349224       -1.5256178972
 C         -2.9547415432       -0.6592674739        0.0254953354
 C         -2.1527376887       -0.8435696866        1.1339165162
 C         -2.7585859979       -1.0639825057        2.3619678726
 C         -4.1405804697       -1.0973562615        2.4617454071
 C         -4.9306174126       -0.9112984444        1.3371186277
 C         -4.3339264904       -0.6951985107        0.1059153630
 H         -4.9052114125       -0.5447355156       -0.7959059326
 H         -6.0056641484       -0.9354053411        1.4150541754
 H         -4.6032851449       -1.2682141722        3.4210553642
 H         -2.1364561021       -1.2075472868        3.2309388053
 H         -1.0782726595       -0.8045051002        1.0434669632
 H         -2.4186685147       -2.5966036949       -2.0844104507
 H         -1.6888043939       -4.1700206919       -0.4420309215
 H          0.1923735516       -4.9873525623        0.9300536224
 H          2.3036488593       -3.7413000762        1.0189252687
 H          3.3465160917       -1.4009744146       -1.3939814867
 C          4.0153960662       -1.9035563415        0.5517577020
 C          4.9737402287       -0.9535091497        1.2045671623
 C          3.9700802526       -1.6933190173        2.0342242039
 H          4.3247449791       -2.4880590580        2.6741609777
 H          3.1292391123       -1.1494213376        2.4329671978
 H          6.0129360383       -1.2391990606        1.2709567398
 H          4.8215472742        0.1029225306        1.0351450720
 H          4.4369596332       -2.8416568656        0.2037423853
