  62
        -98.93553611
 C         -2.2273077696       -1.0332711997       -0.1075467698
 C         -2.9850221895       -0.5230318896        0.9767002102
 C         -3.8758234992        0.6171554006        0.7020819503
 C         -3.9239060092        1.1273615307       -0.5421563397
 C         -4.6985327089        2.2959749409       -1.1149380196
 C         -5.8470055488        2.9284200811       -0.3333993695
 C         -7.0762612890        2.0350397313       -0.1694789496
 H         -7.7847688888        2.5461689914        0.4858352105
 H         -7.5518981190        1.9171022615       -1.1463965696
 C         -6.8071726192        0.6376281912        0.3831358503
 H         -6.1741408694        0.0835071411       -0.3129456097
 H         -7.7633787794        0.1103318314        0.4381596603
 C         -6.1730940192        0.5946014610        1.7719689203
 H         -6.1844347695       -0.4460224990        2.1069386203
 H         -6.7771145291        1.1770575511        2.4702552804
 C         -4.7183980291        1.0892283207        1.8519677203
 H         -4.6722121889        2.1720872807        1.9414721004
 H         -4.2668828492        0.6670305105        2.7544452303
 H         -5.4962073187        3.2774441109        0.6333307105
 H         -6.1553936086        3.8137331512       -0.8961873795
 H         -3.9525088188        3.0710765207       -1.3234250795
 H         -5.0704794590        1.9586502810       -2.0877805196
 O         -3.1553454393        0.6225725306       -1.5499233497
 C         -2.2990589095       -0.4555267396       -1.3735579498
 O         -1.6854486396       -0.7730975697       -2.4103404198
 O         -2.9227556196       -1.0085886797        2.1378419402
 C         -1.3402907199       -2.2317545299        0.1839198201
 C          0.0686666602       -1.7988699503        0.4983103501
 C          0.6880252902       -2.1770921705        1.6833217900
 C          1.9778431603       -1.7620214808        1.9665634000
 C          2.6764152604       -0.9689726209        1.0740366101
 C          2.0632136805       -0.5782874006       -0.1094395599
 C          0.7689467904       -0.9920940903       -0.3887074499
 H          0.2943373004       -0.6844512902       -1.3093258499
 N          2.7664764006        0.2177449793       -1.0316646498
 S          3.4900516910        1.6219008191       -0.4617530797
 O          2.7874989911        2.1520702691        0.6846719103
 O          3.5940749411        2.4926844791       -1.6122443597
 C          5.1223266508        1.0890637787        0.0107283202
 C          5.5873716109        1.3359933585        1.2875416302
 C          6.8630470008        0.9138535482        1.6290223702
 C          7.6465431607        0.2570461681        0.6925679901
 C          7.1657374806        0.0198337683       -0.5867443399
 C          5.8920744507        0.4400834686       -0.9349156599
 H          5.4813150106        0.2781148888       -1.9175260799
 H          7.7778173205       -0.4912667418       -1.3122955100
 H          8.6378637606       -0.0720468121        0.9613227701
 H          7.2385848609        1.0978523081        2.6227705002
 H          4.9395084310        1.8443131486        1.9839490003
 H          2.2410546207        0.4058889794       -1.8739792298
 H          3.6812446905       -0.6439445611        1.2884997301
 H          2.4457855502       -2.0607558109        2.8920180300
 H          0.1451334701       -2.7861402104        2.3911319100
 H         -1.7622934499       -2.6677524399        1.1030702400
 C         -1.4118630501       -3.3010510098       -0.8988043700
 C         -0.2659068202       -3.6695016300       -1.7883726701
 C         -0.7001433204       -4.6075987900       -0.7051607101
 H         -1.2074779206       -5.5203600099       -0.9779463602
 H         -0.0606244004       -4.6964153302        0.1601372699
 H         -0.4927464003       -3.9150376299       -2.8147406801
 H          0.6694847499       -3.1472626102       -1.6649723900
 H         -2.3976943401       -3.3478584696       -1.3509523600
