  62
        -98.93649715
 C         -2.7620542109       -0.3178599941        0.4823278560
 C         -2.3622348037        0.2784897522       -0.7366796101
 C         -2.2921791819        1.7512925542       -0.7540818275
 C         -2.6495600351        2.4450326045        0.3432980226
 C         -2.7399945434        3.9364641266        0.5933426433
 C         -2.0453814039        4.9277494248       -0.3368490647
 C         -0.5184686338        4.8650708913       -0.3143008591
 H         -0.1370325044        5.5347607659       -1.0878324938
 H         -0.1689247679        5.2376381131        0.6518764386
 C          0.0855663699        3.4778803920       -0.5191507785
 H          1.1743035148        3.5715805079       -0.4806699066
 H         -0.2066891471        2.8230176780        0.3047713660
 C         -0.2618056867        2.7924623658       -1.8394739543
 H          0.3580626305        1.8932022872       -1.9078079357
 H          0.0058579747        3.4450224570       -2.6732602231
 C         -1.7319843603        2.3668298043       -2.0028178352
 H         -2.3500763346        3.1962333328       -2.3395032599
 H         -1.7731850340        1.5913726959       -2.7734904446
 H         -2.4148073022        4.8139176995       -1.3516187687
 H         -2.3395515858        5.9261994501       -0.0021691891
 H         -3.8103246714        4.1698959283        0.6082645192
 H         -2.3771927576        4.0890943024        1.6146227539
 O         -3.0755891721        1.8218801611        1.4824172740
 C         -3.1066091163        0.4427640470        1.5960205829
 O         -3.4482375714        0.0255241755        2.7216197341
 H         -0.3820517102       -0.8155577884        1.1812750469
 C         -0.2904426301       -1.7264566993        0.6002274680
 C         -1.4424146955       -2.4005204273        0.2153531045
 C         -1.3037628167       -3.5688999647       -0.5225139750
 C         -0.0481949054       -4.0273911687       -0.8834019257
 C          1.0936651199       -3.3371371783       -0.5206525283
 C          0.9663086152       -2.1733670354        0.2257511239
 N          2.1264611795       -1.4514406500        0.6017273793
 S          2.9519608665       -0.7176570382       -0.6831439376
 O          2.1713732417        0.3713567005       -1.2278553869
 O          3.3587543938       -1.7414056205       -1.6102801408
 C          4.3752915194       -0.0742675659        0.1748199481
 C          5.4117022281       -0.9360293365        0.4772621187
 C          6.5074905557       -0.4474636843        1.1704335215
 C          6.5474957104        0.8865079175        1.5484489824
 C          5.4993810555        1.7393995524        1.2375925367
 C          4.3999154223        1.2560622814        0.5455974945
 H          3.5654330337        1.8836700933        0.2750131383
 H          5.5335108566        2.7764450770        1.5305595097
 H          7.4019323171        1.2651366863        2.0868023724
 H          7.3254052153       -1.1064204595        1.4130635657
 H          5.3399303090       -1.9616265848        0.1558200581
 H          1.8898394426       -0.7169240386        1.2581395200
 H          2.0727110780       -3.6675052096       -0.8253888167
 H          0.0416719059       -4.9326959363       -1.4646228156
 H         -2.1813335859       -4.1149432014       -0.8284212331
 C         -2.7833366176       -1.8293178936        0.6123316919
 H         -2.9510846180       -2.0439386260        1.6784478330
 C         -3.9360322584       -2.4032980338       -0.1866044117
 C         -4.6359981639       -3.6462893268        0.2723567525
 C         -5.3194212071       -2.3174737601        0.3822561858
 H         -6.1390422201       -2.0990063820       -0.2856465023
 H         -5.4229370242       -1.8713083758        1.3608652416
 H         -4.9914228730       -4.3423343172       -0.4725253813
 H         -4.2864678059       -4.1111490025        1.1817848322
 H         -3.8209095347       -2.2404328934       -1.2524007372
 O         -2.0762576205       -0.3863182273       -1.7668196218
