  62
        -98.94093511
 C         -1.8684393761       -1.3270787432        0.6262521942
 C         -1.8103195101        0.0074516701        1.1054922019
 C         -3.0330223579        0.8046087898        0.9691737731
 C         -4.1385456049        0.2389814445        0.4518647349
 C         -5.4836476956        0.8967072330        0.3005397069
 C         -5.6365065394        1.7311026257       -0.9782907635
 C         -4.8558940070        3.0456936713       -0.9911086261
 H         -5.2174688898        3.6252105386       -1.8428394128
 H         -5.0878890265        3.6133369781       -0.0894104155
 C         -3.3361640166        2.8732313440       -1.1190408857
 H         -3.1131319241        1.8639473059       -1.4728255308
 H         -2.9526784856        3.5666084756       -1.8707651954
 C         -2.5548066460        3.1274666734        0.1700455187
 H         -1.4999023711        2.9290353088       -0.0345923056
 H         -2.6549417392        4.1760705518        0.4589393767
 C         -2.9824114560        2.2517489828        1.3556112759
 H         -2.2400933170        2.3574605263        2.1507905814
 H         -3.9497228971        2.5793179406        1.7363913610
 H         -5.3356756125        1.1199098702       -1.8323413219
 H         -6.6984944110        1.9608635201       -1.0920314462
 H         -6.2211019755        0.0913941499        0.2757524809
 H         -5.6829123121        1.5229991245        1.1707649646
 O         -4.1614533706       -1.0470081068        0.0175137900
 C         -3.0232938806       -1.8499421420        0.0429889874
 O         -3.1990917096       -2.9708077530       -0.4668157021
 O         -0.7794852818        0.5032091607        1.6336236493
 C         -0.5841368730       -2.1279615808        0.7440321374
 C          0.3469380963       -1.7817144882       -0.3905872626
 C         -0.1076640310       -1.7416970841       -1.7051137886
 C          0.7568310485       -1.4150801624       -2.7332904478
 C          2.0815044014       -1.1111496834       -2.4703489245
 C          2.5465840198       -1.1487264481       -1.1607964089
 C          1.6772834988       -1.4898839820       -0.1322709632
 H          2.0504837517       -1.5167226503        0.8799253084
 N          3.8924345447       -0.8768088564       -0.8763260352
 S          4.3593200165        0.0408395512        0.4421199826
 O          5.7752938709        0.2520226698        0.2381976093
 O          3.9844504122       -0.6251728056        1.6626347021
 C          3.4978506137        1.5920807812        0.2685446477
 C          4.1244608272        2.6030573183       -0.4362116026
 C          3.4652934297        3.8073546573       -0.6168614806
 C          2.1919566733        3.9812350435       -0.0943788312
 C          1.5789931272        2.9576089091        0.6098511469
 C          2.2312165352        1.7482176134        0.7930985164
 H          1.7529934531        0.9471153912        1.3327928706
 H          0.5900379262        3.0755143376        1.0235722706
 H          1.6757851227        4.9181812144       -0.2333740905
 H          3.9436498820        4.6052800989       -1.1617915545
 H          5.1199172756        2.4303206250       -0.8123331083
 H          4.4515605962       -0.6443505668       -1.6842956055
 H          2.7529809573       -0.8516329198       -3.2744356509
 H          0.3950019879       -1.3907021640       -3.7501845409
 H         -1.1428832387       -1.9759073557       -1.9083433963
 H         -0.1070026362       -1.7712620933        1.6722625620
 C         -0.7927707673       -3.6265547852        0.8967954764
 C         -0.4730999861       -4.6157201937       -0.1792969513
 C          0.3931860220       -4.5341846011        1.0395767182
 H          0.3476589386       -5.3332643253        1.7639727856
 H          1.3735228340       -4.0940583118        0.9295981913
 H         -1.1360072280       -5.4594212767       -0.2941998042
 H         -0.0764273245       -4.2456016626       -1.1116108072
 H         -1.6549944850       -3.8546187571        1.5144901715
