  62
        -98.95132668
 C         -2.3307390915       -0.1741144780        0.1097749214
 C         -1.6060231314        0.4154965317       -0.9526586487
 C         -1.5125119099        1.8799252516       -0.9294045581
 C         -2.0274346487        2.5625138217        0.1093752925
 C         -2.0283484271        4.0579829116        0.2760900931
 C         -0.7163707563        4.6240822600        0.8355895328
 C          0.4448022033        4.6748994193       -0.1576959177
 H          1.2155624442        5.3088394083        0.2853728223
 H          0.1137003334        5.1572894400       -1.0784697473
 C          1.0629989518        3.3080445488       -0.4825638885
 H          0.7923218914        2.5854650787        0.2911730613
 H          2.1533367619        3.3896162976       -0.4628880890
 C          0.6799348506        2.7445632898       -1.8502069786
 H          1.1583791096        1.7687724093       -1.9550973493
 H          1.0688203710        3.3975605497       -2.6354158385
 C         -0.8274211097        2.5682401014       -2.0731417880
 H         -0.9677490507        1.9455015319       -2.9604745083
 H         -1.2922631787        3.5383772920       -2.2517576874
 H         -0.4216285865        4.0314788793        1.7053473524
 H         -0.9197071251        5.6417603801        1.1778286033
 H         -2.2535025670        4.5345277923       -0.6788414866
 H         -2.8319298066        4.2898952221        0.9786292636
 O         -2.6519605889        1.9518226019        1.1515693225
 C         -2.8226461003        0.5781734920        1.1751645019
 O         -3.4268747303        0.1506435822        2.1819397720
 H         -0.4671815017       -0.9834531906        1.6741985702
 C         -0.2331404928       -1.8534022206        1.0780368997
 C         -1.1911008737       -2.3736358892        0.2175706799
 C         -0.8698441952       -3.5022386992       -0.5264268807
 C          0.3871312842       -4.0737521306       -0.4243999415
 C          1.3542548852       -3.5208559419        0.3955251483
 C          1.0396186666       -2.3955649019        1.1484869690
 N          1.9944875476       -1.7689624733        1.9766775988
 S          2.3841434291       -0.1793028135        1.6083239493
 O          3.4521589299        0.1653403450        2.5221763790
 O          1.2042519100        0.6432287477        1.6692395202
 C          3.0352353783       -0.2641143135       -0.0509633410
 C          2.1766583376       -0.4830565721       -1.1099384607
 C          2.7106876469       -0.6325494321       -2.3815143510
 C          4.0810231869       -0.5591074634       -2.5737774316
 C          4.9295934676       -0.3362882548       -1.4994421118
 C          4.4045206383       -0.1944958448       -0.2255515015
 H          5.0240901189       -0.0234870258        0.6399724183
 H          5.9955280976       -0.2769087158       -1.6495855523
 H          4.4879593364       -0.6756391434       -3.5657997618
 H          2.0392981164       -0.8028105510       -3.2081515408
 H          1.1110969976       -0.5289364011       -0.9482256003
 H          2.8473284671       -2.3008673142        2.0875635182
 H          2.3427985047       -3.9508371730        0.4534890577
 H          0.6228399331       -4.9511588506       -1.0068339320
 H         -1.6024989360       -3.9316847482       -1.1897957906
 C         -2.5300991831       -1.6793847278        0.1530896408
 H         -3.0645561829       -1.8861273877        1.0923972810
 C         -3.3887204440       -2.1304869364       -1.0104430290
 C         -4.2779700052       -3.3288212456       -0.8747902691
 C         -4.8739081238       -1.9548378849       -0.9224148183
 H         -5.4113385839       -1.6531457740       -1.8087849479
 H         -5.2689579430       -1.5337054749       -0.0089053879
 H         -4.2791104353       -3.8468026360        0.0724332806
 H         -4.4116791062       -3.9721155251       -1.7314019094
 H         -2.9199485743       -1.9439528065       -1.9695656791
 O         -1.0764306025       -0.2461334184       -1.8842811592
