  62
        -98.94304363
 C          0.9177923513        1.7235964744        0.1945247805
 C         -0.0026874605        2.4674793664       -0.5763715246
 C         -1.4043294972        2.4398616878       -0.1269962128
 C         -1.7364968863        1.7079457718        0.9505114890
 C         -3.0865331158        1.5581543879        1.6060731769
 C         -4.3073930379        1.3834860505        0.6933858896
 C         -4.0434024398        0.6257052251       -0.6159589938
 H         -3.0566559833        0.1584427814       -0.5966853144
 H         -4.7807916995       -0.1729367385       -0.7207782789
 C         -4.1397836265        1.5187749768       -1.8548297454
 H         -4.3199357642        0.8871721082       -2.7282502082
 H         -4.9970886271        2.1876562390       -1.7483126917
 C         -2.8880817683        2.3436721188       -2.1468537340
 H         -2.0770557954        1.6751674231       -2.4515820219
 H         -3.1017223535        2.9970045423       -2.9966879854
 C         -2.3794792386        3.2026780184       -0.9769211231
 H         -3.2064548806        3.5943496664       -0.3890691252
 H         -1.8204248695        4.0438044481       -1.3964007432
 H         -5.0623825176        0.8511903583        1.2741882509
 H         -4.7272731669        2.3600943262        0.4555932814
 H         -2.9855829793        0.6860960880        2.2559084950
 H         -3.2468346523        2.4268770839        2.2514962184
 O         -0.8152799597        0.9986392513        1.6622160916
 C          0.5233564247        0.9833550644        1.3079456099
 O          1.2444377232        0.2894546333        2.0480957058
 O          0.3327221278        3.1361136199       -1.5925003002
 C          2.3690139577        1.6525335748       -0.2393507466
 C          2.7785114997        0.2136854197       -0.4427908733
 C          4.0511818646       -0.2619085632       -0.1505770338
 C          4.3587250809       -1.5987448142       -0.3366380910
 C          3.4059006731       -2.4910371901       -0.7933280892
 C          2.1308898762       -2.0225980034       -1.0946466290
 C          1.8394959689       -0.6771735772       -0.9451566815
 H          0.8507620123       -0.3262628838       -1.1994003186
 N          1.1320540595       -2.8985208257       -1.5467589340
 S         -0.4895830542       -2.6532270596       -1.2736725326
 O         -1.1045083955       -3.8923486100       -1.7045207104
 O         -0.9476191603       -1.4674691984       -1.9569704831
 C         -0.7849287778       -2.4729556919        0.4797241519
 C         -2.1026484616       -2.2410417422        0.8248533443
 C         -2.4407086719       -2.1130084664        2.1606047935
 C         -1.4561137441       -2.2208789462        3.1308438476
 C         -0.1420710021       -2.4651897003        2.7707256925
 C          0.2021311775       -2.5980064862        1.4337047434
 H          1.2276107164       -2.7674788251        1.1493926246
 H          0.6272315338       -2.5376002323        3.5220053074
 H         -1.7138059063       -2.1097237230        4.1724835588
 H         -3.4668029955       -1.9295819752        2.4381083164
 H         -2.8344729814       -2.1633413604        0.0364776391
 H          1.3685964474       -3.8791956882       -1.5274020889
 H          3.6390268670       -3.5380341789       -0.9132516530
 H          5.3507793448       -1.9554610021       -0.1053176711
 H          4.8001505792        0.4130573909        0.2300431895
 H          2.4144833018        2.1689779377       -1.2104691901
 C          3.2566406583        2.3872635132        0.7452920924
 C          4.4870108637        3.1034582131        0.2760973770
 C          3.2856013388        3.8850418202        0.7123718730
 H          3.3272410852        4.4215676152        1.6482872403
 H          2.6881015942        4.3729037554       -0.0440381338
 H          5.3571989084        3.1070329874        0.9152191020
 H          4.7128005567        3.0737734832       -0.7792783441
 H          3.2802949676        1.9070399210        1.7171286741
