  62
        -98.94176054
 C         -2.1939074836       -1.2635001674        0.3034684172
 C         -1.7996174699       -0.3230150128       -0.6804811830
 C         -2.6110858043        0.9048790285       -0.7519360079
 C         -3.6364685553        1.0757032930        0.1011635988
 C         -4.5237961601        2.2852862879        0.1507920002
 C         -3.9851597001        3.3354612406        1.1319355092
 C         -2.5033575025        3.6568789317        0.9374835829
 H         -2.2398422256        4.4325039478        1.6600537337
 H         -1.9115435314        2.7729911590        1.1882182733
 C         -2.1371004005        4.1283403986       -0.4768140645
 H         -3.0349960253        4.4570498035       -1.0012241573
 H         -1.4742228930        4.9924538053       -0.3956679216
 C         -1.4053541956        3.0850694338       -1.3232149036
 H         -1.0026073562        3.5898379498       -2.2053451948
 H         -0.5580286788        2.6917306558       -0.7563181214
 C         -2.2535615685        1.9053338221       -1.8156710372
 H         -3.1535205751        2.2815238803       -2.3064558131
 H         -1.6648516854        1.3549096860       -2.5554723650
 H         -4.1250397822        2.9639170156        2.1498902265
 H         -4.5743524890        4.2474275070        1.0203622900
 H         -4.6029726603        2.7123890683       -0.8470729346
 H         -5.5151682111        1.9692020938        0.4801693339
 O         -3.9565380901        0.1703770596        1.0612275539
 C         -3.2395574441       -1.0083375539        1.1942635817
 O         -3.6189137837       -1.7332886020        2.1359045839
 H         -0.0658867526       -0.7990033739        1.8463086235
 C          0.5858247996       -1.4079441506        1.2305255612
 C          0.0271677120       -2.3931078506        0.4248059050
 C          0.8757169280       -3.1561972396       -0.3665277707
 C          2.2438277971       -2.9456570154       -0.3363305192
 C          2.7949687234       -1.9654313838        0.4668505873
 C          1.9524269877       -1.1785826282        1.2428552399
 N          2.4956015712       -0.1503797130        2.0296808055
 S          3.7430655183        0.7666306827        1.3950883802
 O          4.9998654004        0.1057073247        1.6504556866
 O          3.5917102245        2.0720182676        2.0015718284
 C          3.4704261134        0.8605391813       -0.3662029129
 C          4.5138024683        0.5805224916       -1.2256515766
 C          4.2947730081        0.6532461948       -2.5917247865
 C          3.0404659779        0.9961054552       -3.0722096157
 C          2.0035553628        1.2776533407       -2.1965102388
 C          2.2201247977        1.2145329004       -0.8305067892
 H          1.4251504662        1.4198370974       -0.1309661438
 H          1.0209292300        1.5232916603       -2.5641861804
 H          2.8659600883        1.0416442683       -4.1355753910
 H          5.0993197453        0.4357511550       -3.2756932636
 H          5.4684432757        0.3043099359       -0.8077358373
 H          1.8084333289        0.4300332571        2.4867328942
 H          3.8588615398       -1.7953437891        0.5066262779
 H          2.8906136793       -3.5515821167       -0.9520362758
 H          0.4681131003       -3.9090344038       -1.0200667339
 C         -1.4695726336       -2.5869452564        0.4793011482
 H         -1.7201812246       -2.9114924929        1.5035972663
 C         -1.9657067971       -3.6844287987       -0.4527499008
 C         -3.3292642850       -3.6254511707       -1.0726312737
 C         -2.1103218329       -3.4659265235       -1.9279624518
 H         -1.8454352418       -4.2725674991       -2.5956964097
 H         -1.8731320857       -2.4855383148       -2.3088878438
 H         -3.8960162574       -4.5417791720       -1.1448452218
 H         -3.9369474505       -2.7542448501       -0.8744192841
 H         -1.6329365759       -4.6674254685       -0.1343005984
 O         -0.8308306136       -0.4851685614       -1.4636948538
