  62
        -98.94217330
 C         -1.0761126657       -1.7157919353        0.2112115698
 C         -1.6286805084       -0.8341629738        1.1739368865
 C         -2.9000224378       -0.1974097209        0.8106338262
 C         -3.4477861165       -0.4425495660       -0.3938974665
 C         -4.7854029269        0.0488049818       -0.8793946908
 C         -4.7841615279        1.4750970282       -1.4437835399
 C         -4.6470021311        2.5827250918       -0.3995141046
 H         -4.8924181576        3.5240673707       -0.8948239330
 H         -5.3828702466        2.4303640274        0.3904785710
 C         -3.2433417962        2.6967198736        0.2098841319
 H         -2.5276299243        2.1666008442       -0.4219211963
 H         -2.9438638618        3.7458230238        0.2297658780
 C         -3.1168802849        2.1679024682        1.6378389629
 H         -3.7109603374        2.7863990314        2.3145627990
 H         -2.0689890303        2.2468208159        1.9399954231
 C         -3.5506732024        0.7077520111        1.8133175148
 H         -3.2394050039        0.3753981003        2.8070503094
 H         -4.6360263691        0.6284145926        1.7441626176
 H         -5.7307883700        1.6152260396       -1.9706432318
 H         -3.9789588925        1.5613256736       -2.1763041855
 H         -5.5097123955       -0.0185910540       -0.0663877097
 H         -5.0923307908       -0.6352792840       -1.6735573493
 O         -2.8461950464       -1.2342032320       -1.3196859018
 C         -1.6630136383       -1.9054461756       -1.0403782505
 O         -1.2613592417       -2.6261463698       -1.9719297966
 O         -1.1038905061       -0.6179330525        2.2996930827
 C          0.1566021347       -2.5167396514        0.5965178515
 C          1.3464460326       -2.1552965590       -0.2571367480
 C          1.7352813460       -2.9031157600       -1.3620636216
 C          2.8433458625       -2.5320305230       -2.1023454432
 C          3.5910014852       -1.4234413278       -1.7509664886
 C          3.2140562028       -0.6707474119       -0.6430517890
 C          2.0910193869       -1.0322972700        0.0865163132
 H          1.8053094777       -0.4449190504        0.9474173552
 N          3.9857143501        0.4309535690       -0.2543733899
 S          3.4442836428        1.6746838434        0.6962970338
 O          4.4937976335        2.6681067850        0.6018396808
 O          3.1447260837        1.2105546338        2.0277032497
 C          1.9772804416        2.3498405717       -0.0644966928
 C          1.1929327035        3.1731644077        0.7190144672
 C          0.1093828568        3.8181394188        0.1469949397
 C         -0.1771117762        3.6247870401       -1.1956967839
 C          0.6095084821        2.7839617101       -1.9658970920
 C          1.7032320159        2.1453938829       -1.4012931969
 H          2.3257159148        1.4930044050       -1.9916013844
 H          0.3803840239        2.6256185874       -3.0077282110
 H         -1.0170875106        4.1315577862       -1.6438263544
 H         -0.5037946774        4.4693077255        0.7490255115
 H          1.4470178073        3.2900903216        1.7606095968
 H          4.7250562700        0.7050875632       -0.8825530956
 H          4.4643152193       -1.1439696991       -2.3201912763
 H          3.1313561699       -3.1175664272       -2.9620704247
 H          1.1592947984       -3.7652313261       -1.6521804758
 H          0.3841163621       -2.2086529256        1.6268918935
 C         -0.1473081406       -4.0025215447        0.5926135055
 C          0.7664187543       -4.9428463621        1.3176614694
 C         -0.6018243176       -4.6596467211        1.8594629532
 H         -1.3525649104       -5.4333233247        1.7977758549
 H         -0.6860703249       -4.0402355551        2.7406236541
 H          0.9576262628       -5.9133915923        0.8862961242
 H          1.6137700044       -4.5143848203        1.8316544387
 H         -0.6015106192       -4.3450592842       -0.3293174951
