  62
        -98.94510737
 C          0.9715491105        1.2240181201        0.4740787196
 C          1.4890069103        0.0508811400        1.0771216195
 C          2.2447842197       -0.8538230303        0.2012254694
 C          2.3478316595       -0.5627383603       -1.1080825307
 C          3.1033336190       -1.3850476206       -2.1113413008
 C          4.5575393592       -0.9117486711       -2.2424048112
 C          5.2755559495       -0.7518459913       -0.9022534114
 H          6.3020572496       -0.4477811717       -1.1177359016
 H          4.8089655999        0.0635327488       -0.3447626612
 C          5.2871627693       -2.0179008013       -0.0343045214
 H          6.2922724193       -2.1555953717        0.3695946584
 H          5.0629586688       -2.8900411913       -0.6494841313
 C          4.3297615496       -1.9777755010        1.1581057189
 H          4.4882368000       -1.0555890311        1.7226745188
 H          4.5766635395       -2.8127923111        1.8189782388
 C          2.8363539295       -2.0873969605        0.8244898292
 H          2.6628562490       -2.9609140304        0.1916249093
 H          2.2988760996       -2.2281100803        1.7668600493
 H          5.0979830888       -1.6271489413       -2.8650269913
 H          4.5620232894        0.0541601089       -2.7529172212
 H          3.0759740087       -2.4307485406       -1.8096128008
 H          2.6041421788       -1.2848386804       -3.0771147207
 O          1.8034556698        0.5478377898       -1.6623613105
 C          1.0846732903        1.4573425101       -0.8989473104
 O          0.6254268105        2.4107181103       -1.5548863903
 O          1.3140308904       -0.2351716700        2.2922469996
 C          0.1208204410        2.1385194404        1.3408275798
 C         -1.2065815391        2.3415558209        0.6552133202
 C         -1.7606191887        3.5773140011        0.3540691703
 C         -2.9567031588        3.6517586315       -0.3400957994
 C         -3.6061438393        2.5079302617       -0.7659120893
 C         -3.0609732997        1.2650840915       -0.4618832394
 C         -1.8931425595        1.1946021811        0.2751829703
 H         -1.4725554198        0.2284728410        0.5131119702
 N         -3.6753987402        0.0726606617       -0.8741729993
 S         -2.7221642407       -1.2343057986       -1.3115979695
 O         -1.4731856907       -0.8319935790       -1.9151079598
 O         -3.5941080512       -2.0445090883       -2.1382837093
 C         -2.4334657307       -2.0948321187        0.2197044904
 C         -3.5206270206       -2.3984716183        1.0155083107
 C         -3.3103033806       -3.0817072084        2.2021460007
 C         -2.0246664106       -3.4508760988        2.5687071704
 C         -0.9447385907       -3.1444659192        1.7555787401
 C         -1.1486093407       -2.4600972991        0.5679755401
 H         -0.3314561408       -2.1870515594       -0.0835176100
 H          0.0565290793       -3.4228237995        2.0423969799
 H         -1.8599778806       -3.9792222889        3.4944372003
 H         -4.1467247005       -3.3222486081        2.8383551509
 H         -4.5029531906       -2.0960274380        0.6935526209
 H         -4.4631121203        0.1897435220       -1.4948458991
 H         -4.5190058894        2.5718249620       -1.3384370191
 H         -3.3763933486        4.6180261216       -0.5761656893
 H         -1.2443857383        4.4811611709        0.6330418102
 H         -0.0584279490        1.5471402105        2.2551701799
 C          0.7929550016        3.4263292402        1.7877562697
 C          2.2862053116        3.5275038597        1.8688499193
 C          1.5361398117        4.3218253999        0.8441403195
 H          1.4567433921        5.3900643900        0.9849820695
 H          1.5938896313        4.0197121399       -0.1893232105
 H          2.7228111520        4.0466025095        2.7088872592
 H          2.8618707513        2.6775351695        1.5315250292
 H          0.2378461319        3.9157209504        2.5822947098
