  62
        -98.94589829
 C          1.2309623278        0.9002734961       -0.5027937768
 C          2.3678115636        1.2204914600        0.2837921292
 C          3.1653426069        0.0924682597        0.7784495650
 C          2.7641298608       -1.1616263187        0.5035736413
 C          3.4980172197       -2.4061378300        0.9105337964
 C          4.4931858002       -2.8465672228       -0.1723138986
 C          5.3952455036       -1.7198104863       -0.6758697274
 H          6.0736526272       -2.1519415349       -1.4145667036
 H          4.7827798776       -0.9790963828       -1.1947981437
 C          6.2113281683       -1.0218522368        0.4209928913
 H          6.2461983379       -1.6487535235        1.3127265039
 H          7.2381278409       -0.8999113566        0.0698208616
 C          5.7027586931        0.3700066185        0.8011725949
 H          6.4662666116        0.8550153346        1.4152092246
 H          5.5768009317        0.9732886544       -0.1013017655
 C          4.3888651481        0.4083308262        1.5922464053
 H          4.2492259218        1.4302570760        1.9571111275
 H          4.4586470075       -0.2562933964        2.4562075719
 H          5.1066904848       -3.6541569362        0.2312878416
 H          3.9290446253       -3.2390453305       -1.0213378555
 H          4.0209719634       -2.2212158702        1.8470911739
 H          2.7655194597       -3.2000116379        1.0676266892
 O          1.6579992052       -1.4351597743       -0.2288709567
 C          0.8628436116       -0.4230061920       -0.7508380096
 O         -0.1057395135       -0.8501490301       -1.4083612669
 O          2.7050452792        2.4058437389        0.5530844425
 C          0.4035450325        2.0754153083       -0.9983572133
 C         -0.7166353630        2.3602068186       -0.0260885616
 C         -0.8425629730        3.6030202154        0.5828992300
 C         -1.8512618361        3.8360561368        1.5011388206
 C         -2.7355071084        2.8297002938        1.8450772065
 C         -2.6164816057        1.5831185941        1.2405867567
 C         -1.6294164037        1.3648591879        0.2923027613
 H         -1.5461427721        0.3958927869       -0.1719725462
 N         -3.4898488499        0.5344481939        1.5619593262
 S         -2.9131067404       -1.0390561028        1.5940999518
 O         -3.8606325584       -1.7433789976        2.4373517723
 O         -1.5359387863       -1.0965527709        2.0302090209
 C         -3.1019590822       -1.6381422030       -0.0696167398
 C         -4.1003409323       -1.1162977862       -0.8675332725
 C         -4.2723401786       -1.6297436226       -2.1425283436
 C         -3.4538467468       -2.6545326416       -2.5918564897
 C         -2.4609159884       -3.1707683962       -1.7753442485
 C         -2.2806476403       -2.6590748265       -0.5005212525
 H         -1.5059041242       -3.0193353666        0.1577940102
 H         -1.8175447852       -3.9611051352       -2.1274239981
 H         -3.5865302838       -3.0507745642       -3.5864667549
 H         -5.0408707671       -1.2266936614       -2.7825731020
 H         -4.7135998994       -0.3152918416       -0.4892202975
 H         -4.1262221581        0.7188298647        2.3238321229
 H         -3.5070840031        3.0014032147        2.5800983046
 H         -1.9389129615        4.8051975716        1.9683586591
 H         -0.1311889845        4.3812533031        0.3490585181
 H          1.0851195010        2.9371288321       -0.9828545505
 C         -0.1340512886        1.9120560660       -2.4058815100
 C         -0.4924004292        3.1359245555       -3.1925872196
 C          0.7132125493        2.3290764657       -3.5688629950
 H          0.6798579688        1.7331166401       -4.4682730846
 H          1.6892208170        2.7399068296       -3.3543229553
 H         -1.3578005237        3.0972662942       -3.8357004192
 H         -0.3326101548        4.0962297860       -2.7262807793
 H         -0.7515262241        1.0324473320       -2.5302441237
