  62
        -98.94291941
 C         -2.0155328004       -1.0116288590        0.4097159806
 C         -2.6439992708        0.0360250114        1.1333630996
 C         -4.0695307607        0.2502977110        0.8658221791
 C         -4.7093629004       -0.5483951498       -0.0071407005
 C         -6.1684801903       -0.4801476703       -0.3679704409
 C         -6.4978296702        0.5565198988       -1.4507402418
 C         -6.4233270305        2.0155998892       -0.9990870329
 H         -6.8864548704        2.6179917385       -1.7831167735
 H         -7.0182685308        2.1460521198       -0.0946144131
 C         -4.9977259007        2.5319335296       -0.7584821529
 H         -4.8800952007        3.5110918793       -1.2282058136
 H         -4.2803151504        1.8606594393       -1.2364401322
 C         -4.6200065911        2.6891774708        0.7146099371
 H         -5.2426369513        3.4609661911        1.1728457763
 H         -3.5795082612        3.0205758210        0.7682948871
 C         -4.7500588811        1.4026929914        1.5403728480
 H         -4.2584942714        1.5620424622        2.5033880380
 H         -5.8008564811        1.1738041814        1.7175068079
 H         -7.5157180801        0.3566440284       -1.7932585319
 H         -5.8255443199        0.4029563183       -2.2979088815
 H         -6.7568690906       -0.2731845997        0.5264344288
 H         -6.4418064100       -1.4685177906       -0.7435521902
 O         -4.0806847500       -1.5559953702       -0.6635425095
 C         -2.7241162600       -1.8026910498       -0.4955283690
 O         -2.3048588197       -2.7420154503       -1.1986485581
 O         -2.0405759011        0.7532552622        1.9766649992
 C         -0.5358468704       -1.2305271186        0.6784910011
 C          0.3187454497       -0.5838910992       -0.3859077891
 C          0.2927858101       -1.0209681903       -1.7071327188
 C          1.0812565103       -0.4075684509       -2.6626913791
 C          1.9235913600        0.6359885495       -2.3194871997
 C          1.9583251296        1.0795867405       -1.0036188500
 C          1.1523836795        0.4730082312       -0.0487833497
 H          1.1803974591        0.8395519019        0.9665693400
 N          2.8053292793        2.1380116710       -0.6222416406
 S          3.9027073791        1.8800793521        0.6154394699
 O          3.2061767288        1.6618045230        1.8563406899
 O          4.7932934389        3.0176181022        0.5651567092
 C          4.7754478394        0.4029835019        0.1266721613
 C          4.2198862196       -0.8290263980        0.4091687721
 C          4.8620702799       -1.9715798382       -0.0409852369
 C          6.0426025900       -1.8637714886       -0.7598217267
 C          6.5900008799       -0.6190516287       -1.0322226975
 C          5.9489965796        0.5273351315       -0.5911984185
 H          6.3402164695        1.5146681714       -0.7766273592
 H          7.5101040100       -0.5389637990       -1.5883534673
 H          6.5387815203       -2.7559189288       -1.1079447658
 H          4.4338419300       -2.9381886381        0.1703482138
 H          3.3024930494       -0.8764851277        0.9723250319
 H          3.2717561195        2.5842327405       -1.3997339408
 H          2.5429984101        1.1103373190       -3.0657723199
 H          1.0460789406       -0.7513714717       -3.6852780088
 H         -0.3654967297       -1.8315920906       -1.9785969083
 H         -0.3402079408       -0.7039714078        1.6231175208
 C         -0.1636314802       -2.6888695884        0.8603862924
 C          1.0316182096       -3.0349719275        1.6946631029
 C         -0.3479271405       -3.3273951174        2.2026139628
 H         -0.6798520503       -4.3538520974        2.2428210335
 H         -0.7390593408       -2.7112807868        2.9995514222
 H          1.6517302298       -3.8634737077        1.3893342638
 H          1.5731904193       -2.2229552471        2.1576675025
 H         -0.3677870499       -3.2994331391       -0.0090182572
