  62
        -98.94538539
 C          1.9847855207        0.9421943925       -0.0754271485
 C          1.5081820147        1.9396396067       -0.9639411476
 C          0.4148020262        2.7822310112       -0.4669198299
 C         -0.0667321350        2.5873290165        0.7736629831
 C         -1.1700311747        3.3689550167        1.4329959969
 C         -2.5785218266        2.8698143205        1.0841553760
 C         -3.0485961185        3.1939816424       -0.3337824428
 H         -4.1199518052        2.9881575048       -0.3718484338
 H         -2.9132058934        4.2583791410       -0.5296112842
 C         -2.3547188891        2.3774358377       -1.4325637376
 H         -1.8816394524        1.4915917401       -0.9999633223
 H         -3.0990044705        2.0072612649       -2.1420850974
 C         -1.3125607486        3.1497754530       -2.2426658603
 H         -0.8586150837        2.4523539919       -2.9521204615
 H         -1.8045838631        3.9401415899       -2.8149031763
 C         -0.1899032034        3.7798164725       -1.4073188454
 H         -0.5690627441        4.6416632768       -0.8579756553
 H          0.5954237280        4.1156652274       -2.0893905749
 H         -2.6161661352        1.7890139016        1.2369793223
 H         -3.2727145079        3.3330283915        1.7886914113
 H         -1.0800599990        4.4234387580        1.1707238637
 H         -1.0247057943        3.2635881736        2.5100069982
 O          0.4284834348        1.6346504189        1.6034545739
 C          1.4239797801        0.7589933935        1.1889773615
 O          1.7031237079       -0.1121431434        2.0342203120
 O          1.9728883087        2.1120235430       -2.1228935420
 C          3.0116109145       -0.0468561829       -0.6022538475
 C          2.4963645409       -1.4440225624       -0.3561968505
 C          3.1867262975       -2.4258404112        0.3404222638
 C          2.5994013355       -3.6593269075        0.5664665158
 C          1.3179152981       -3.9311601315        0.1244839571
 C          0.6189144969       -2.9554200179       -0.5806430330
 C          1.2250945915       -1.7364007690       -0.8370749545
 H          0.6841147264       -0.9822717406       -1.3897139690
 N         -0.6810458824       -3.2113343800       -1.0435695773
 S         -1.8907908004       -2.0882993952       -1.2432257626
 O         -2.9897255022       -2.8484804090       -1.7982078284
 O         -1.4229806209       -0.9813782307       -2.0391377134
 C         -2.3825547635       -1.4930261612        0.3697583053
 C         -3.7355271312       -1.3430527382        0.6096530212
 C         -4.1545874023       -0.8454016485        1.8327737341
 C         -3.2175937317       -0.5053243766        2.7972331407
 C         -1.8642535359       -0.6645037343        2.5441810986
 C         -1.4392346449       -1.1601840771        1.3206749949
 H         -0.3861831488       -1.2752615238        1.1181947839
 H         -1.1202334556       -0.3954885823        3.2775221015
 H         -3.5405834085       -0.1116096498        3.7479870193
 H         -5.2073647831       -0.7203995124        2.0282753595
 H         -4.4282232000       -1.6237648052       -0.1669170329
 H         -1.0603497108       -4.1079966704       -0.7796802559
 H          0.8554932281       -4.8854011579        0.3256673708
 H          3.1415204041       -4.4149284571        1.1144682044
 H          4.1700291800       -2.2189114408        0.7292150012
 H          3.0147632663        0.1234372961       -1.6927144825
 C          4.4376664958        0.1787880671       -0.1276084206
 C          4.8998701493        1.5407380500        0.2946650804
 C          4.7806359145        0.4430038425        1.3066989169
 H          5.6899259211        0.0126873424        1.7005954433
 H          3.9695185246        0.4787643274        2.0157968517
 H          5.8854191429        1.8647551182       -0.0046974391
 H          4.1652710995        2.3330753553        0.3103460926
 H          5.1495281076       -0.4123181854       -0.6962095199
