  62
        -98.93981582
 C          2.2082102790        0.7942417521        0.1106167096
 C          2.4632269971       -0.3035089530        0.9663118088
 C          3.1061148139       -1.4686965441        0.3447811275
 C          3.3696381130       -1.4468384911       -0.9748180372
 C          4.0653311700       -2.5428684872       -1.7277591399
 C          5.5832253973       -2.3158148396       -1.7610933012
 C          6.1922370164       -2.0106614805       -0.3925320268
 H          7.2697039965       -1.9011389728       -0.5334162092
 H          5.8149469343       -1.0475243725       -0.0411783362
 C          5.9224143897       -3.0799342718        0.6753595568
 H          5.6191783919       -4.0123510863        0.1978987358
 H          6.8512981810       -3.2787852648        1.2139942326
 C          4.8783915941       -2.6831059364        1.7208264828
 H          5.1298011782       -1.7037087265        2.1357241228
 H          4.9247981719       -3.4064420799        2.5392979015
 C          3.4254899706       -2.6402571021        1.2306304905
 H          2.7816388511       -2.5360241386        2.1090203952
 H          3.1776038163       -3.5798062982        0.7325995033
 H          5.7925761858       -1.4734054800       -2.4243386355
 H          6.0560460250       -3.2051225512       -2.1817121837
 H          3.8408354010       -3.4989755882       -1.2590004441
 H          3.6856021792       -2.5511508346       -2.7507645197
 O          3.0687048808       -0.3916620073       -1.7736720633
 C          2.4879943333        0.7570378370       -1.2559126785
 O          2.2746313054        1.6479057921       -2.0985074405
 O          2.1598269742       -0.3115377628        2.1909756066
 C          1.5584920206        2.0388562264        0.6885147892
 C          0.2045529497        2.2483218909        0.0546185917
 C         -0.1942058821        3.4389956145       -0.5358927947
 C         -1.4531870989        3.5510282083       -1.1017100232
 C         -2.3380290417        2.4892864054       -1.0897839612
 C         -1.9547972045        1.2965689928       -0.4883066277
 C         -0.6955327440        1.1891376856        0.0815004266
 H         -0.3948238363        0.2603130823        0.5516329977
 N         -2.8367620425        0.1939895443       -0.4796349887
 S         -4.3967015879        0.4641521058        0.1149457878
 O         -5.1260510979        1.2499319334       -0.8470786701
 O         -4.3334699929        1.0056870382        1.4555949772
 C         -5.0346254763       -1.1985412927        0.1448646319
 C         -5.4953841620       -1.7491399757       -1.0358070759
 C         -5.9718918033       -3.0502231785       -1.0261732623
 C         -5.9791204064       -3.7746917752        0.1566889212
 C         -5.5142222748       -3.2079784931        1.3337796834
 C         -5.0346048152       -1.9074495083        1.3307834899
 H         -4.6711828924       -1.4244901884        2.2239487537
 H         -5.5230612588       -3.7727651651        2.2521345066
 H         -6.3524459485       -4.7865864700        0.1622685652
 H         -6.3364865013       -3.4939944355       -1.9385211554
 H         -5.4788237895       -1.1453968414       -1.9280024086
 H         -2.4294652472       -0.5922492267        0.0106002895
 H         -3.3203677455        2.5712428075       -1.5250187955
 H         -1.7489048624        4.4808837295       -1.5639091176
 H          0.4803940481        4.2787175348       -0.5607368175
 H          1.4000448722        1.8170112251        1.7547066213
 C          2.4824919885        3.2318737972        0.5728036143
 C          2.3572764162        4.3747143273        1.5341957001
 C          3.5276656512        3.4436382532        1.6253272810
 H          4.4995041636        3.8031717853        1.3221167363
 H          3.5589461007        2.7386043497        2.4433396177
 H          2.5273137615        5.3765303216        1.1698715060
 H          1.5935983523        4.3060337905        2.2942296501
 H          2.7546741341        3.4513336890       -0.4532913262
