  62
        -98.94459653
 C         -1.7166148202       -0.3731028702        0.2468830992
 C         -2.8463187802       -0.3044416007        1.1063675092
 C         -3.9556663501        0.5509627596        0.6687839897
 C         -3.8413063301        1.2312373003       -0.4858986199
 C         -4.9109982300        2.0968123907       -1.0841812994
 C         -5.8070272401        1.2925064013       -2.0365754599
 C         -6.3155340401       -0.0216132390       -1.4437204007
 H         -6.9600642701       -0.4877886086       -2.1920590409
 H         -5.4684509801       -0.6931045292       -1.2861473811
 C         -7.0899408001        0.1334419202       -0.1273793606
 H         -7.9892198502       -0.4842560897       -0.1755667310
 H         -7.4142880001        1.1678337802       -0.0078256000
 C         -6.3171634602       -0.3021765706        1.1190871892
 H         -5.9113123302       -1.3053545005        0.9663028286
 H         -7.0216320802       -0.3581632010        1.9532203991
 C         -5.1704347201        0.6209148491        1.5505102997
 H         -5.5332364901        1.6481172791        1.6257418403
 H         -4.8401293202        0.2998166985        2.5426936695
 H         -6.6550467600        1.9173663515       -2.3226587395
 H         -5.2349677101        1.0624879218       -2.9384054300
 H         -5.5088566300        2.5308115102       -0.2850269091
 H         -4.4305290100        2.9013115510       -1.6437063489
 O         -2.7382265201        1.1647721907       -1.2699346799
 C         -1.6566660201        0.3607061305       -0.9378336804
 O         -0.7336890201        0.4111944710       -1.7767012703
 O         -2.9235358702       -0.9415797513        2.1905107288
 C         -0.5941076802       -1.2989566305        0.6842256486
 C          0.5605121198       -0.5611388610        1.3174932291
 C          1.0206171598       -0.9015908217        2.5840176689
 C          2.1146526698       -0.2573260821        3.1364022793
 C          2.7702497899        0.7423460383        2.4396176699
 C          2.3099179599        1.0956784991        1.1787179401
 C          1.2210027599        0.4420350694        0.6228726597
 H          0.8807747199        0.7155187000       -0.3647632601
 N          2.9838618899        2.1034249395        0.4472719707
 S          4.5026682799        1.6394234997       -0.0942728296
 O          5.3885929699        1.5468722290        1.0381664104
 O          4.8699681800        2.5920788803       -1.1172365490
 C          4.2431515799        0.0242007202       -0.8035909105
 C          4.4092881198       -1.0959277403       -0.0143971912
 C          4.1223236998       -2.3399817500       -0.5518701919
 C          3.6733235998       -2.4403877492       -1.8595514520
 C          3.5070606898       -1.3052967887       -2.6376707713
 C          3.7890046299       -0.0583893790       -2.1043716406
 H          3.6739619399        0.8476517713       -2.6780045700
 H          3.1516581798       -1.3857728581       -3.6525726114
 H          3.4525244898       -3.4095941689       -2.2791107126
 H          4.2450748497       -3.2244774503        0.0520455275
 H          4.7624010398       -0.9738285009        0.9962983489
 H          2.4440195700        2.4221078800       -0.3463451391
 H          3.6342836699        1.2445456680        2.8437308902
 H          2.4610750798       -0.5360310627        4.1198659991
 H          0.5100344598       -1.6734078320        3.1407837684
 H         -1.0428029402       -1.9405621310        1.4543634982
 C         -0.0769625402       -2.1837889599       -0.4352007419
 C          0.5164228097       -3.5157425901       -0.0935063927
 C         -0.8168794103       -3.4413880796       -0.7737712027
 H         -0.8887666003       -3.7319309790       -1.8109403428
 H         -1.6999974703       -3.6719073100       -0.1953967628
 H          1.3649339097       -3.8598841998       -0.6626931229
 H          0.5366802297       -3.8016837607        0.9469123171
 H          0.3638226198       -1.6278958694       -1.2527566416
