  62
        -98.94467407
 C          1.7744993594        1.0836848002       -0.0663232917
 C          2.9664926097        1.1062746312        0.7073470878
 C          4.1577985896        0.5142400210        0.0919415579
 C          4.0823911093        0.0125789700       -1.1536862217
 C          5.2140097892       -0.5954974703       -1.9365983116
 C          5.4683360098       -2.0758752899       -1.6213863905
 C          6.1093863203       -2.3500835187       -0.2603936405
 H          6.4303005607       -3.3937052186       -0.2619981998
 H          7.0032616702       -1.7352509883       -0.1506270113
 C          5.1754083607       -2.1231143880        0.9367309496
 H          4.1391323206       -2.0956426186        0.5912725100
 H          5.2579715612       -2.9650784274        1.6277888003
 C          5.4646190106       -0.8518651873        1.7352522785
 H          4.7213393208       -0.7727125169        2.5327381787
 H          6.4502437808       -0.9276284166        2.1997935582
 C          5.4123776499        0.4393989921        0.9082440475
 H          6.2895289897        0.5100465718        0.2652769872
 H          5.4124043099        1.2878667326        1.5967911668
 H          4.5218303399       -2.6168665603       -1.6936999998
 H          6.1326769596       -2.4643680704       -2.3967972604
 H          6.1265635791       -0.0240479299       -1.7643946724
 H          4.9435316089       -0.5098834812       -2.9913201516
 O          2.9301025491        0.0235667691       -1.8707550513
 C          1.7488885191        0.5310033592       -1.3466589913
 O          0.7814013789        0.4218092283       -2.1283983809
 O          3.0307309599        1.6113321421        1.8593206574
 C          0.5437167994        1.7004619803        0.5763658982
 C         -0.3783937001        0.6585620305        1.1623104493
 C         -0.7339342696        0.6883175615        2.5054146694
 C         -1.6138052391       -0.2461442684        3.0248056905
 C         -2.1542088591       -1.2307581992        2.2169718415
 C         -1.7970697696       -1.2725155201        0.8759422014
 C         -0.9241558100       -0.3296553603        0.3554151703
 H         -0.6589197904       -0.3652893710       -0.6908462797
 N         -2.3555371096       -2.2644651009        0.0362053823
 S         -4.0073793897       -2.1012704016       -0.2083102072
 O         -4.6961215492       -2.4836516409        0.9982411433
 O         -4.3123549499       -2.8752885927       -1.3901572965
 C         -4.2343847603       -0.3601348519       -0.5185383685
 C         -4.5807307202        0.4770874488        0.5226384409
 C         -4.6727806807        1.8383735386        0.2826501899
 C         -4.4148090313        2.3350503376       -0.9855194906
 C         -4.0628125514        1.4814468169       -2.0195927200
 C         -3.9654286709        0.1198514071       -1.7845394890
 H         -3.6972706110       -0.5761950234       -2.5636468785
 H         -3.8573751719        1.8707327762       -3.0040258904
 H         -4.4926326617        3.3948305575       -1.1723502814
 H         -4.9409247506        2.5066180291        1.0848196795
 H         -4.7765825198        0.0490991895        1.4919039414
 H         -1.8951848999       -2.3056871715       -0.8631260578
 H         -2.8511911788       -1.9596679891        2.5978760123
 H         -1.8809199588       -0.2085184476        4.0698391106
 H         -0.3086020596        1.4462215621        3.1466599487
 H          0.9325242495        2.3069442711        1.4052958576
 C         -0.2357385612        2.6072123394       -0.3575296222
 C         -1.1016789313        3.6798519196        0.2279439372
 C          0.1639539084        4.0449359694       -0.4868979135
 H          0.0967169179        4.5118962686       -1.4578979839
 H          1.0042724985        4.3841564501        0.1014188859
 H         -2.0434758115        3.8945603289       -0.2513032026
 H         -1.1212282109        3.7756521404        1.3026441471
 H         -0.5876569613        2.1050229886       -1.2492213417
