  62
        -98.93686345
 C         -2.1994748192       -1.0710048488        0.3389494308
 C         -2.4615965144       -0.1749460496       -0.7250116131
 C         -3.3723042287        0.9400586236       -0.4176224269
 C         -3.8607889103        1.0653299281        0.8297426113
 C         -4.8589216868        2.0957426895        1.2760045166
 C         -6.2720154699        1.6967117181        0.8044238550
 C         -6.8880631063        2.6506936481       -0.2191614145
 H         -7.7723335395        2.1602260230       -0.6315583953
 H         -7.2223665090        3.5544554531        0.2946522926
 C         -5.9721286182        3.0779757258       -1.3702186865
 H         -6.6114492233        3.5219099519       -2.1362064753
 H         -5.2998412406        3.8674500757       -1.0309089606
 C         -5.1359114468        1.9635965409       -2.0125608949
 H         -5.6067896404        0.9923959224       -1.8592595299
 H         -5.1092175243        2.1375099664       -3.0901037689
 C         -3.6734358871        1.9024212675       -1.5331005980
 H         -3.3390623921        2.9048447165       -1.2516876264
 H         -3.0457596309        1.5684403408       -2.3646491258
 H         -6.2203325811        0.6910809467        0.3818574936
 H         -6.9401593247        1.6408947788        1.6651545560
 H         -4.5838247734        3.0706580624        0.8796341519
 H         -4.8190121810        2.1371584187        2.3647798545
 O         -3.5521124740        0.2043937547        1.8357269208
 C         -2.7197054031       -0.8815404058        1.6176919556
 O         -2.5148442074       -1.5855991832        2.6285813186
 O         -1.9603475831       -0.2973764165       -1.8723577540
 C         -1.2924121751       -2.2661339824        0.1129684408
 C          0.0822527032       -1.8160312847       -0.3216101334
 C          0.8078991348       -2.4494104292       -1.3219464644
 C          2.0765646121       -2.0071303306       -1.6556291724
 C          2.6488361283       -0.9310393350       -1.0033680452
 C          1.9369476384       -0.2968386908        0.0065576683
 C          0.6697889323       -0.7462835982        0.3427434530
 H          0.1195422023       -0.2534686696        1.1363144022
 N          2.5104067693        0.8037516566        0.6726466555
 S          4.0011029016        0.5601652773        1.4118499311
 O          4.1639609515       -0.8136312054        1.8293337834
 O          4.0761983342        1.5617509452        2.4533569514
 C          5.1816367394        0.9551785272        0.1393605813
 C          6.1277398614        0.0214245515       -0.2355226930
 C          7.0425680234        0.3544339498       -1.2224856512
 C          6.9953594880        1.6081373520       -1.8127174469
 C          6.0400392262        2.5352682710       -1.4229340157
 C          5.1233491565        2.2094042879       -0.4361991325
 H          4.3674208293        2.9004551754       -0.1021571295
 H          6.0067443259        3.5093077744       -1.8839067960
 H          7.7079736237        1.8650792965       -2.5804980924
 H          7.7861343849       -0.3645318677       -1.5267658296
 H          6.1209121583       -0.9427175991        0.2471999820
 H          1.8769087037        1.2540248480        1.3177804176
 H          3.6326754710       -0.5784579411       -1.2664594802
 H          2.6258906125       -2.5061981668       -2.4391405097
 H          0.3790521363       -3.2895374949       -1.8428412595
 H         -1.1885435204       -2.7576719928        1.0923192504
 C         -1.9425382294       -3.2363530113       -0.8521409887
 C         -1.6852499847       -4.7078511422       -0.7364275966
 C         -3.0176400581       -4.1468488058       -0.3425302263
 H         -3.8702865412       -4.3440729283       -0.9747627214
 H         -3.2590806690       -4.0870946481        0.7092101698
 H         -1.6264297045       -5.2942529311       -1.6409370948
 H         -1.0244359504       -5.0402686634        0.0500367281
 H         -2.0724792806       -2.8124579490       -1.8411038467
