  62
        -98.93314451
 C         -2.3455369443       -0.4829990049        0.6124082472
 C         -3.1451715489       -0.8422648738       -0.4983323679
 C         -4.1709667726        0.1397831086       -0.9059636122
 C         -4.2564404832        1.3138532178       -0.2590337465
 C         -5.2502356448        2.4183530887       -0.4900413796
 C         -6.4566962201        2.2686938843        0.4522937762
 C         -7.5765937179        1.3707823881       -0.0724815285
 H         -8.2978076423        1.2439672706        0.7382418621
 H         -8.0901942372        1.8799338131       -0.8906877090
 C         -7.1342355236       -0.0120141086       -0.5583092620
 H         -6.4086682283       -0.4323841694        0.1404256199
 H         -8.0088592100       -0.6653498541       -0.5478576339
 C         -6.5452050007        0.0062061909       -1.9767591782
 H         -6.7697895054        0.9657934075       -2.4421341467
 H         -7.0409197972       -0.7549222880       -2.5827671456
 C         -5.0367117105       -0.2704896980       -2.0662538822
 H         -4.8693908504       -1.3473275256       -2.1683202160
 H         -4.6420015936        0.1931502104       -2.9764103564
 H         -6.8775502577        3.2581075171        0.6425859490
 H         -6.0894602143        1.8814972776        1.4063513176
 H         -5.5634459138        2.4445896546       -1.5294831162
 H         -4.7368862068        3.3527184356       -0.2530972767
 O         -3.4350105487        1.6389132382        0.7783938022
 C         -2.4764485112        0.7590260781        1.2384302732
 O         -1.8094067701        1.1838642970        2.2049404581
 O         -3.0337903910       -1.9248826381       -1.1276281418
 C         -1.2608126301       -1.3824753290        1.1842920036
 C          0.0385591684       -1.1059961028        0.4731267412
 C          0.1560305632       -1.2701942731       -0.9042991175
 C          1.3475927388       -0.9805585187       -1.5424824751
 C          2.4389370466       -0.5149540866       -0.8285789228
 C          2.3236349259       -0.3227206116        0.5409690821
 C          1.1294451657       -0.6281084220        1.1827426286
 H          1.0385600131       -0.4648879391        2.2483175535
 N          3.4222898408        0.1539707119        1.2734022285
 S          4.3151928891        1.4367083223        0.6616272543
 O          4.9380946777        2.0422671118        1.8182099662
 O          3.5083654000        2.3045241472       -0.1644568267
 C          5.5711678896        0.6436607997       -0.3216219060
 C          5.7721500642        1.0380318918       -1.6298669695
 C          6.7628479409        0.4153290307       -2.3733223070
 C          7.5315971374       -0.5846749223       -1.7979622849
 C          7.3191469658       -0.9672219470       -0.4817918112
 C          6.3314389908       -0.3479264726        0.2671422477
 H          6.1375588207       -0.6139624019        1.2927266115
 H          7.9189585239       -1.7453824118       -0.0380109141
 H          8.3008635179       -1.0685187239       -2.3788485178
 H          6.9294526655        0.7121505721       -3.3963884858
 H          5.1462862918        1.8162578436       -2.0373106593
 H          3.2323051427        0.2845902529        2.2565936213
 H          3.3662226046       -0.2811998917       -1.3253121539
 H          1.4291014261       -1.1162641905       -2.6103237048
 H         -0.6991123549       -1.6192497653       -1.4632671900
 H         -1.1415937280       -1.0519362936        2.2284098843
 C         -1.6488020749       -2.8544104451        1.2179073187
 C         -0.9264076644       -3.9265146253        0.4638082756
 C         -0.7738085828       -3.8295722313        1.9497404243
 H         -1.2382484310       -4.5779059723        2.5738756080
 H          0.1661635889       -3.4578108244        2.3301756115
 H         -1.5191635857       -4.7291923598        0.0525170567
 H         -0.0866995477       -3.6459841166       -0.1515826536
 H         -2.7193434697       -2.9888702287        1.3291138848
