  62
        -98.93370828
 C          2.5657470115        1.1555142586        0.1245351673
 C          3.2098763121        0.3397733763        1.0889884501
 C          4.1626920974       -0.6515210250        0.5760635437
 C          4.3643576876       -0.7396776217       -0.7512852564
 C          5.2599855337       -1.7421398635       -1.4183400013
 C          4.4870031561       -3.0155505123       -1.7892637879
 C          3.6484445240       -3.5849011684       -0.6448118484
 H          2.8476460393       -2.8813337160       -0.4049577274
 H          3.1740798475       -4.4975287338       -1.0119968682
 C          4.4442233644       -3.9001610837        0.6295540067
 H          4.1366454830       -4.8798041087        1.0014686890
 H          5.5078547695       -3.9617700224        0.3967954449
 C          4.2335854993       -2.9046517786        1.7719890301
 H          4.6616258694       -3.3348644197        2.6814757607
 H          3.1631717209       -2.7692340215        1.9476219178
 C          4.8684167263       -1.5216858655        1.5779081924
 H          4.8071112115       -0.9912978342        2.5327962370
 H          5.9222536984       -1.6344005291        1.3153443552
 H          5.2024291342       -3.7673316216       -2.1273286631
 H          3.8176256073       -2.7838993353       -2.6208081754
 H          6.0845067071       -1.9857113548       -0.7511650261
 H          5.6607292899       -1.2931203499       -2.3285480332
 O          3.7262491472        0.0518163309       -1.6468640813
 C          2.8033855966        1.0108458875       -1.2440019212
 O          2.2917271987        1.6360221688       -2.1869875178
 O          2.9944946683        0.4358226347        2.3290189494
 C          1.5600323461        2.1781342642        0.6405216129
 C          0.1972505691        1.8529508614        0.0813625461
 C         -0.3602337946        2.3800096775       -1.0773174126
 C         -1.6068923146        1.9612334348       -1.5114700395
 C         -2.3242823295        1.0042402041       -0.8188242598
 C         -1.7764839817        0.4586504826        0.3345412349
 C         -0.5344565032        0.8909567407        0.7735620804
 H         -0.1110982306        0.4581126972        1.6719606473
 N         -2.4770110729       -0.5383070387        1.0353518564
 S         -4.0912636432       -0.2722235106        1.4112033795
 O         -4.3695971162        1.1354157114        1.5782456193
 O         -4.3556193030       -1.1198300189        2.5532439391
 C         -4.9733579067       -0.9064818827        0.0007109689
 C         -5.8682920365       -0.0971482680       -0.6713419596
 C         -6.5497740023       -0.6132075129       -1.7626751766
 C         -6.3260216409       -1.9226043246       -2.1596684706
 C         -5.4268682116       -2.7236681383       -1.4714284070
 C         -4.7436084479       -2.2143670865       -0.3787857627
 H         -4.0404635653       -2.8050938726        0.1843842576
 H         -5.2559311344       -3.7416173442       -1.7828584120
 H         -6.8555090514       -2.3216392654       -3.0103807852
 H         -7.2501733975        0.0074143176       -2.2981089176
 H         -6.0054395589        0.9166189984       -0.3301052947
 H         -1.9785155570       -0.8995117425        1.8357609238
 H         -3.2917455343        0.6764218891       -1.1619081945
 H         -2.0210203609        2.3846192922       -2.4139876191
 H          0.1834124393        3.0942572734       -1.6683129937
 H          1.5056328612        1.9625228741        1.7196833745
 C          2.0998941116        3.5996967616        0.5595832782
 C          2.2854023129        4.4098034733       -0.6867694621
 C          1.2457264975        4.8075382689        0.3173497811
 H          1.4271441573        5.6871331311        0.9171539932
 H          0.2067808706        4.6502705644        0.0741303963
 H          3.1818844723        5.0101653413       -0.7551659174
 H          1.9924047390        3.9799970706       -1.6296957903
 H          2.8887521290        3.7225289306        1.2986168755
