  62
        -98.94892301
 C         -2.2310759057       -0.8627254403        0.0794495219
 C         -1.5877589159       -0.1232960701       -0.9418713981
 C         -1.9975250627        1.2807193293       -1.0751421647
 C         -2.9037611522        1.7856003967       -0.2189824128
 C         -3.4156860378        3.1966290424       -0.2409739744
 C         -2.5921547926        4.1210897634        0.6646924827
 C         -1.0822459748        4.0242676703        0.4456093430
 H         -0.6110770236        4.7625683861        1.0993377826
 H         -0.7260052192        3.0441338562        0.7716507580
 C         -0.6299928956        4.2620442186       -1.0018041212
 H         -1.4130171355        4.7793129780       -1.5586510464
 H          0.2460180495        4.9140697949       -0.9876672326
 C         -0.2241840615        2.9873868059       -1.7443526525
 H          0.3311805412        3.2743979626       -2.6415583098
 H          0.4481343423        2.4064547849       -1.1078741900
 C         -1.3788543176        2.0793152479       -2.1875549381
 H         -2.1370330265        2.6726066071       -2.7041444713
 H         -0.9753057646        1.3467286173       -2.8927354460
 H         -2.8026757061        3.8660963797        1.7061459836
 H         -2.9201679225        5.1487278124        0.4940623106
 H         -3.3941186571        3.5645531532       -1.2651888482
 H         -4.4493603983        3.1885356861        0.1105337598
 O         -3.4546377197        1.0607010549        0.7898015584
 C         -3.1233358377       -0.2718708789        0.9711460021
 O         -3.6833759389       -0.8152530367        1.9475092666
 H         -0.3613740456       -0.9405366057        1.9033140000
 C          0.2272187747       -1.6444505256        1.3265779199
 C         -0.4124944768       -2.4907279342        0.4288602385
 C          0.3598267611       -3.3903831562       -0.2942375857
 C          1.7375148657       -3.4064632818       -0.1559361603
 C          2.3736429919       -2.5143320657        0.6883049665
 C          1.6058149310       -1.6331012863        1.4365869056
 N          2.2698014963       -0.6504780678        2.2324289986
 S          2.2744747671        0.8279143886        1.4075564266
 O          3.0124289649        1.7460192844        2.2501821593
 O          0.9301904459        1.2473316462        1.0746017548
 C          3.2096545243        0.4390890286       -0.0511802488
 C          4.5867514973        0.5268590879        0.0195600326
 C          5.3383683689        0.1781695875       -1.0903315338
 C          4.7018291432       -0.2552342017       -2.2441253154
 C          3.3191787668       -0.3385805019       -2.2966332859
 C          2.5586040071        0.0087948840       -1.1903266279
 H          1.4808570641       -0.0580013348       -1.2063368510
 H          2.8188878917       -0.6785318145       -3.1890792422
 H          5.2860395919       -0.5303955183       -3.1081753417
 H          6.4138874206        0.2421802222       -1.0519240758
 H          5.0324032260        0.8718040906        0.9381161707
 H          1.8128100154       -0.4999260302        3.1229969284
 H          3.4475861906       -2.4852101810        0.7741078750
 H          2.3237575152       -4.1044488104       -0.7331189885
 H         -0.1174397636       -4.0669547735       -0.9841007625
 C         -1.9036886159       -2.3356565106        0.2661716505
 H         -2.3943779113       -2.6430556701        1.2012621030
 C         -2.4760647106       -3.1441594422       -0.8795102879
 C         -2.8615744421       -4.5776570775       -0.6743812346
 C         -3.9223883389       -3.5322296594       -0.8393719658
 H         -4.4881763446       -3.5085374420       -1.7585242440
 H         -4.4908662378       -3.2329298650        0.0294679057
 H         -2.7036367341       -5.2755287080       -1.4825622846
 H         -2.7159045384       -4.9989275236        0.3087580090
 H         -2.0633856405       -2.8541881472       -1.8389436954
 O         -0.7294481663       -0.6180085417       -1.7182887100
