  62
        -98.94428367
 C         -2.3246439645       -1.1511934081        0.2300886151
 C         -2.3037971696        0.0960647481       -0.4403310293
 C         -3.2103805250        1.1253686797        0.0913314498
 C         -3.9721378209        0.8488516843        1.1649462991
 C         -4.9700949574        1.7877233371        1.7769554010
 C         -6.3623129753        1.6049148215        1.1564193981
 C         -6.3620470543        1.6006567003       -0.3721538538
 H         -5.8239914901        0.7183335509       -0.7259175473
 H         -7.3994071599        1.4969740441       -0.6972707717
 C         -5.7496708931        2.8552602738       -1.0103623461
 H         -6.3983002986        3.1874246748       -1.8236442687
 H         -5.7094216759        3.6622905423       -0.2779809215
 C         -4.3573069449        2.6465819695       -1.6089272373
 H         -4.1130017984        3.5219052980       -2.2168321064
 H         -4.3703520845        1.7797268015       -2.2743965336
 C         -3.2182682991        2.4608999112       -0.5982093687
 H         -2.2721545226        2.5217197438       -1.1449173001
 H         -3.2394036171        3.2711990365        0.1337049717
 H         -6.7724432288        0.6530639202        1.5013177085
 H         -7.0089512294        2.4055656198        1.5198555435
 H         -5.0279904344        1.5769590289        2.8461103760
 H         -4.6293331815        2.8118444695        1.6370377484
 O         -3.9493589213       -0.3524965996        1.7955690556
 C         -3.1285389539       -1.3737953339        1.3517140827
 O         -3.2037214599       -2.4200153137        2.0259214480
 H          0.4782481922       -1.0309316008       -1.7064260095
 C          0.8274181767       -1.2619409377       -0.7125915901
 C         -0.0048837218       -1.9291873175        0.1725879634
 C          0.4576291338       -2.1813579420        1.4611118285
 C          1.7212291288       -1.7768560847        1.8489812189
 C          2.5447714568       -1.1000791797        0.9656967732
 C          2.0855980957       -0.8295778968       -0.3155719878
 N          2.9068015159       -0.1172155794       -1.2099825200
 S          3.5211766390        1.3522296672       -0.6704274736
 O          2.6750932776        1.9508759817        0.3363415403
 O          3.7525100510        2.1320429897       -1.8672321771
 C          5.0957548852        0.9137237907        0.0391137791
 C          6.0005217471        0.2314316885       -0.7507059079
 C          7.2333322521       -0.1070915652       -0.2162306679
 C          7.5408515124        0.2434673654        1.0900737160
 C          6.6233226853        0.9316540550        1.8689394256
 C          5.3875995529        1.2719427373        1.3405931524
 H          4.6402817686        1.8017706809        1.9098174023
 H          6.8636711436        1.2041329961        2.8841124227
 H          8.5011866014       -0.0208630598        1.5038104251
 H          7.9495300658       -0.6422230935       -0.8186702117
 H          5.7241252332       -0.0176230579       -1.7614987216
 H          2.4832882724        0.0032407854       -2.1197819341
 H          3.5256998558       -0.7682684293        1.2649034795
 H          2.0674121747       -1.9840524895        2.8502015797
 H         -0.1968303024       -2.6833076896        2.1602967973
 C         -1.4216408783       -2.3019591517       -0.1909012653
 H         -1.7175924404       -3.1568556797        0.4310489026
 C         -1.6045030286       -2.6758640329       -1.6468158607
 C         -1.0664871059       -3.9861349612       -2.1354474006
 C         -2.5455037464       -3.7857866247       -2.0026487205
 H         -3.1370253425       -3.6904686078       -2.9009606886
 H         -3.0591894350       -4.2843101482       -1.1935254955
 H         -0.6407030856       -4.0324748513       -3.1260401439
 H         -0.5747660647       -4.6210210460       -1.4140927841
 H         -1.5671619481       -1.8289087981       -2.3199349156
 O         -1.5772712144        0.3516228693       -1.4375750808
