  62
        -98.93778759
 C          2.3073713698        1.3668035323        0.0142323334
 C          3.0406410952        0.5933106852        0.9440127286
 C          3.8157817986       -0.5232357495        0.3877480480
 C          3.7864791729       -0.7575754742       -0.9367788571
 C          4.5625670650       -1.8116262061       -1.6818454352
 C          4.2013509605       -3.2770440254       -1.3710743173
 C          5.0703437099       -3.9267978999       -0.2869277942
 H          5.2881356932       -4.9550726123       -0.5823119164
 H          6.0263471688       -3.4036756539       -0.2437178050
 C          4.4558322115       -3.9859232414        1.1147200434
 H          5.2528129855       -4.2316303950        1.8197252936
 H          3.7239835540       -4.7963354685        1.1495791464
 C          3.7517273541       -2.7141755621        1.5879616958
 H          2.7850424478       -2.6227195309        1.0852382771
 H          3.5355336556       -2.8200809155        2.6531033100
 C          4.5449528839       -1.4139878377        1.3513229436
 H          4.6333236526       -0.8567710942        2.2861027848
 H          5.5464773619       -1.6357422282        0.9862667390
 H          3.1454446863       -3.3443341203       -1.1083051181
 H          4.3375928973       -3.8379105756       -2.2971503221
 H          5.6281777553       -1.6555591676       -1.4987202613
 H          4.3729660959       -1.6160845687       -2.7392558262
 O          3.0484380233       -0.0020855114       -1.7955678493
 C          2.2770116108        1.0599087643       -1.3463639768
 O          1.6337876510        1.6399948536       -2.2406358235
 O          3.0485393568        0.8255704306        2.1837583969
 C          1.4738906044        2.5306722915        0.5220070444
 C          0.0134190212        2.2410852298        0.2759989007
 C         -0.8427838174        3.0964784006       -0.4031378694
 C         -2.1632060901        2.7386756140       -0.6176989731
 C         -2.6587853320        1.5334283200       -0.1561218801
 C         -1.8121209447        0.6729346994        0.5312567265
 C         -0.4919750150        1.0339460413        0.7449351636
 H          0.1691367161        0.3601563801        1.2771290016
 N         -2.3084560112       -0.5519508747        1.0174621965
 S         -3.0581080538       -1.5730273194       -0.0878764207
 O         -2.9170790768       -2.9006201001        0.4710932262
 O         -2.5434494003       -1.3809839383       -1.4243789000
 C         -4.7697387277       -1.0898270794       -0.0102792893
 C         -5.3992101343       -1.1213647459        1.2188389462
 C         -6.7317615053       -0.7496346469        1.2972292357
 C         -7.4090130225       -0.3583277996        0.1516879023
 C         -6.7637892861       -0.3361949151       -1.0753207561
 C         -5.4301380605       -0.7053711104       -1.1606036366
 H         -4.8844052150       -0.6973361419       -2.0908276978
 H         -7.2918043547       -0.0325965693       -1.9649792898
 H         -8.4460521799       -0.0689804603        0.2154770189
 H         -7.2368401399       -0.7652056010        2.2495425123
 H         -4.8373188300       -1.4349163491        2.0826687897
 H         -1.6304864672       -1.0683695745        1.5601280634
 H         -3.6845031668        1.2505028617       -0.3274047553
 H         -2.8158376522        3.4093734692       -1.1553700812
 H         -0.4740832507        4.0369865300       -0.7774312264
 H          1.6379999433        2.5526595280        1.6096155406
 C          1.9514185707        3.8385869560       -0.0701100366
 C          1.7126168883        5.1245124087        0.6617051743
 C          3.0955616594        4.5535964182        0.5817573988
 H          3.8227649156        5.0432271615       -0.0483053415
 H          3.5188579051        4.1070168852        1.4697010092
 H          1.4915857067        6.0111223758        0.0871078587
 H          1.1966317630        5.0713698120        1.6082611632
 H          1.9089954905        3.8469079600       -1.1532090364
