  62
        -98.93713338
 C         -2.0178170469       -1.4230963240       -0.1239177263
 C         -1.9266414175       -0.0821094632       -0.5654429753
 C         -3.1950617241        0.6644853775       -0.6348376062
 C         -4.3422799819        0.0546742024       -0.2913139936
 C         -5.7421518057        0.6151639385       -0.3168662765
 C         -5.9431779996        2.0367898082        0.2282120803
 C         -4.9917209983        2.4404077226        1.3643620462
 H         -5.5792056920        2.8443544378        2.1911100376
 H         -4.4626547813        1.5631529896        1.7408571789
 C         -3.9778834827        3.5080809054        0.9449751071
 H         -3.6009659737        4.0052738266        1.8421360138
 H         -4.4935516600        4.2625871542        0.3467177915
 C         -2.7651035203        2.9966478347        0.1678838711
 H         -2.1968304097        3.8650788706       -0.1742070045
 H         -2.1103122656        2.4281264804        0.8343031026
 C         -3.0852804227        2.1053126085       -1.0429467316
 H         -3.9788000225        2.4477919448       -1.5590409522
 H         -2.2403979042        2.1598639243       -1.7345512990
 H         -6.9745356621        2.0968637589        0.5798827215
 H         -5.8478339689        2.7555828173       -0.5845422406
 H         -6.1084310406        0.5716854281       -1.3466187740
 H         -6.3404437804       -0.0886465620        0.2667218594
 O         -4.3824635116       -1.2441562533        0.1226210598
 C         -3.2328276220       -2.0093101541        0.2227696202
 O         -3.4207596358       -3.1741945627        0.6303631134
 H          1.9645355250       -2.0554003906       -0.3314982552
 C          1.6087412366       -1.5847611725        0.5720328999
 C          0.2553395217       -1.6007904538        0.8743340321
 C         -0.1648273491       -0.9942687122        2.0548429412
 C          0.7386200253       -0.3699674034        2.8936317288
 C          2.0875693253       -0.3496210317        2.5845440291
 C          2.5207135852       -0.9639198257        1.4178632385
 N          3.8970170952       -0.9622087573        1.1083265603
 S          4.6392028466        0.5078750280        0.8014666280
 O          6.0154971869        0.1887504084        0.4975880134
 O          4.4168043973        1.3882844422        1.9190228872
 C          3.8292519357        1.1313221681       -0.6598912516
 C          2.5337551223        1.5970616911       -0.5552866125
 C          1.8743004382        2.0049957823       -1.7035241233
 C          2.5214863914        1.9465008474       -2.9281760981
 C          3.8259478433        1.4833472504       -3.0159524588
 C          4.4859089254        1.0623326129       -1.8730283266
 H          5.4963577607        0.6867100145       -1.8942915957
 H          4.3255037526        1.4415798934       -3.9707244651
 H          2.0025373847        2.2614181553       -3.8200971060
 H          0.8501969367        2.3324074334       -1.6318258983
 H          2.0513062921        1.6292022797        0.4080123086
 H          4.1405831817       -1.6106785569        0.3721025113
 H          2.8035664935        0.1466115411        3.2188583404
 H          0.3912312951        0.1029511594        3.8002088864
 H         -1.2174962910       -1.0112840706        2.3043109734
 C         -0.7623751295       -2.2678034878       -0.0193504135
 H         -1.0680054445       -3.2110431769        0.4574998843
 C         -0.2343874219       -2.5716058640       -1.4073831771
 C          0.4731153545       -3.8625583364       -1.6884019550
 C         -0.9103346891       -3.6350817132       -2.2174938121
 H         -1.0396872806       -3.4738895764       -3.2771189875
 H         -1.7311584352       -4.1627013835       -1.7533550015
 H          1.2933255901       -3.8605008676       -2.3908784990
 H          0.5925899291       -4.5580580867       -0.8711801167
 H          0.0961703235       -1.6799548528       -1.9283179095
 O         -0.8444406533        0.4664698735       -0.8920029309
