  62
        -98.93375073
 C         -2.4587570609       -1.0989426296        0.5030993706
 C         -2.4123877507        0.1919962205       -0.0745580392
 C         -3.5983494005        1.0481883607        0.1340153211
 C         -4.6374181705        0.5866991408        0.8526919012
 C         -5.9469032003        1.2366649310        1.2485797615
 C         -6.4242591202        2.5152367112        0.5647002918
 C         -6.7946941904        2.3539129616       -0.9093075182
 H         -7.7031591105        1.7498018718       -0.9753483282
 H         -7.0231255703        3.3424441617       -1.3136653880
 C         -5.7364497607        1.6908935715       -1.7875661285
 H         -6.1317902908        1.6392388817       -2.8057379784
 H         -5.5747054408        0.6635734114       -1.4544979787
 C         -4.3909941905        2.4115553112       -1.8477133886
 H         -4.5440217904        3.4514243913       -2.1427391084
 H         -3.7935394508        1.9283964512       -2.6257193887
 C         -3.5670469203        2.3853725508       -0.5485225587
 H         -2.5207229203        2.5718566507       -0.8077242988
 H         -3.8792199601        3.1717441408        0.1342660015
 H         -5.6898355900        3.3055954411        0.6885941018
 H         -7.3245533400        2.8340148213        1.0971487920
 H         -5.8694259801        1.4283279408        2.3245817015
 H         -6.7104379305        0.4611752312        1.1296261815
 O         -4.6185944407       -0.6543777693        1.4235001810
 C         -3.5472089509       -1.5146163495        1.2722851307
 O         -3.6794880110       -2.6034997995        1.8661401705
 O         -1.4370756607        0.6307520004       -0.7359343393
 C         -1.3106376511       -2.0849909298        0.3703504202
 C          0.0027557191       -1.3927465901        0.6381198102
 C          0.2672360593       -0.9367607904        1.9265383702
 C          1.4554209495       -0.2958580807        2.2201001901
 C          2.4066615994       -0.0942920107        1.2352673700
 C          2.1534102291       -0.5450931504       -0.0523279900
 C          0.9611375189       -1.1961310501       -0.3426177099
 H          0.7696983287       -1.5213251899       -1.3535469600
 N          3.1067889090       -0.3270864805       -1.0605286401
 S          4.7024715590       -0.7458387308       -0.7683593504
 O          5.2759003987       -0.9914323507       -2.0739682106
 O          4.7985624489       -1.8249412810        0.1876586894
 C          5.4218198394        0.7354357389       -0.0910837803
 C          5.3258338495        1.9010407290       -0.8256318701
 C          5.8894549098        3.0604044588       -0.3176169200
 C          6.5386099300        3.0343732585        0.9078544099
 C          6.6294211999        1.8554237484        1.6316580697
 C          6.0667361596        0.6923132086        1.1292942496
 H          6.1087521094       -0.2460489815        1.6591946894
 H          7.1347927900        1.8371840581        2.5839156296
 H          6.9765020103        3.9384244884        1.3007222600
 H          5.8203946799        3.9792105189       -0.8774984798
 H          4.8160574794        1.8793090293       -1.7743866200
 H          2.8087299188       -0.6241224603       -1.9779778001
 H          3.3341826195        0.4089186691        1.4550156200
 H          1.6430516597        0.0539743891        3.2240636602
 H         -0.4789166206       -1.0877035203        2.6954099003
 H         -1.4725323312       -2.8167717599        1.1790483702
 C         -1.3165810515       -2.8746307996       -0.9305810499
 C         -2.6080181217       -3.2646495292       -1.5836537097
 C         -1.7057587716       -2.2681145293       -2.2439754897
 H         -1.1671123918       -2.5752545292       -3.1291074299
 H         -1.9989426613       -1.2304043292       -2.2502474995
 H         -2.6890281719       -4.2522492491       -2.0122687399
 H         -3.5224677015       -2.9092360991       -1.1312429396
 H         -0.5243667416       -3.6177917697       -0.9522816701
