  62
        -98.94569972
 C         -2.5608876643       -0.1277079123        0.0657491697
 C         -2.4277213916       -1.1886425749       -0.8594382887
 C         -1.9105418321       -2.4496161567       -0.3191011293
 C         -1.5969171072       -2.5355190546        0.9866771296
 C         -1.0455484282       -3.7479693169        1.6864336071
 C          0.4749117523       -3.8985265200        1.5387387380
 C          0.9471871614       -4.3853012633        0.1679520659
 H          1.9899714204       -4.6894810307        0.2775012885
 H          0.3766901652       -5.2681939654       -0.1236960258
 C          0.8622604064       -3.3242687969       -0.9378926693
 H          1.7848847225       -3.3311191571       -1.5243545769
 H          0.7922828909       -2.3308837603       -0.4876302303
 C         -0.2933641144       -3.5115961626       -1.9213502448
 H         -0.2846595527       -2.6644637091       -2.6128404106
 H         -0.1357997885       -4.4239496947       -2.5022310803
 C         -1.6814802083       -3.5836214182       -1.2727830285
 H         -2.4311035942       -3.5055037979       -2.0647372782
 H         -1.8081505640       -4.5388327528       -0.7632125451
 H          0.9421495322       -2.9347364713        1.7569122085
 H          0.8083035215       -4.6153225581        2.2929765648
 H         -1.5422804265       -4.6463715896        1.3183310004
 H         -1.2801805872       -3.6276823647        2.7461774042
 O         -1.7686203747       -1.5017853155        1.8516897577
 C         -2.2133148568       -0.2660494204        1.4099343022
 O         -2.2746411175        0.6061167492        2.2984825169
 O         -2.7271369860       -1.0848038768       -2.0818371472
 C         -2.9862568287        1.2393040854       -0.4342914854
 C         -1.8847511384        2.2449479538       -0.1928691730
 C         -2.1251833477        3.5827239560        0.0925187183
 C         -1.0687275165        4.4556633348        0.2940757824
 C          0.2403696147        4.0162714695        0.2360512103
 C          0.4915295024        2.6761729256       -0.0441689299
 C         -0.5662647296        1.8178204986       -0.2856833651
 H         -0.3580065206        0.7871111678       -0.5330008694
 N          1.8064123458        2.1807671024       -0.0391619182
 S          2.1381452867        0.5669604521       -0.3502808218
 O          1.8352778022        0.2275865152       -1.7247604680
 O          1.5156628146       -0.2375151746        0.6704711407
 C          3.9044772631        0.5823574239       -0.1134732039
 C          4.7433905246        0.6063884220       -1.2110679401
 C          6.1140131429        0.6469169729       -1.0072371247
 C          6.6193511589        0.6646152878        0.2838643087
 C          5.7648523790        0.6381411815        1.3763720458
 C          4.3939216947        0.5969734551        1.1788916503
 H          3.6901640477        0.5668335040        1.9948314650
 H          6.1608682996        0.6489038860        2.3790106191
 H          7.6859942315        0.6962959598        0.4403519911
 H          6.7805044766        0.6641374745       -1.8544304112
 H          4.3039594025        0.5829591796       -2.1953103714
 H          2.5046655012        2.8171899598       -0.3928636806
 H          1.0611470810        4.6931872123        0.4137688798
 H         -1.2703119477        5.4937907037        0.5107252337
 H         -3.1395345700        3.9412597310        0.1595344452
 H         -3.1153992842        1.1265714409       -1.5224171033
 C         -4.3113314979        1.6522030210        0.1734214156
 C         -5.2855062429        2.4773763419       -0.6119325053
 C         -5.5699605140        1.0299479917       -0.3504027669
 H         -6.3485535612        0.7718536147        0.3514076068
 H         -5.4703017922        0.3312973678       -1.1684840804
 H         -5.8744502131        3.2153227804       -0.0884070738
 H         -5.0060960968        2.7624662622       -1.6150899428
 H         -4.2406474062        1.8171294046        1.2426662785
