  62
        -98.93744731
 C         -1.8116731341       -0.1621262679       -0.2595081416
 C         -2.9485732852       -0.3979612560       -1.0632873149
 C         -4.2587305505       -0.4017448143       -0.3836293348
 C         -4.2967825611       -0.1944969319        0.9461572308
 C         -5.5049120067       -0.1201632065        1.8416884572
 C         -6.2635142123        1.2099987606        1.7056683535
 C         -6.4606345802        1.6942806823        0.2716028821
 H         -6.9071893558        2.6911167324        0.3162770352
 H         -5.4861029193        1.7975257537       -0.2089767020
 C         -7.3631239664        0.8175241665       -0.5932115693
 H         -8.3487147888        0.7480551324       -0.1273806079
 H         -7.4852462000        1.3252924725       -1.5534370839
 C         -6.8547878850       -0.5992739338       -0.8678685697
 H         -7.4620551924       -1.0112436930       -1.6792994196
 H         -7.0104056659       -1.2458783271       -0.0084484662
 C         -5.4029481108       -0.6766784757       -1.3297047616
 H         -5.2181166658       -1.6810616730       -1.7302768795
 H         -5.2604743305        0.0004610257       -2.1797364514
 H         -7.2339302841        1.1049063183        2.1937198382
 H         -5.6977988449        1.9767267364        2.2404206436
 H         -6.1628698437       -0.9629106890        1.6513255071
 H         -5.1399446509       -0.2085022150        2.8673141774
 O         -3.1699544655        0.0260939412        1.6826739025
 C         -1.9094068972        0.0469155239        1.1155393925
 O         -0.9819063812        0.2539873240        1.9201332836
 O         -2.8797437330       -0.6007032978       -2.3069276617
 C         -0.4397452215       -0.1481496807       -0.9055340939
 C          0.4507312613       -1.2039886590       -0.2979814065
 C         -0.0736965131       -2.4665853537       -0.0320210526
 C          0.7124773162       -3.4575341040        0.5214105678
 C          2.0465494367       -3.2192818393        0.8017447261
 C          2.5856478979       -1.9700304414        0.5245144367
 C          1.7880420981       -0.9704671910       -0.0170506563
 H          2.2270515376       -0.0085547578       -0.2228583343
 N          3.9322722427       -1.6934297499        0.8018354439
 S          4.8424919284       -0.8045387601       -0.2841118627
 O          4.4176780523       -1.0284751993       -1.6460884217
 O          6.2141928963       -1.1571960783        0.0171840501
 C          4.5804032694        0.8963137498        0.1712923607
 C          4.4747825327        1.2281852472        1.5073764455
 C          4.3191376736        2.5605148098        1.8549323479
 C          4.2816145728        3.5343502466        0.8684271896
 C          4.3958508002        3.1854871211       -0.4682459769
 C          4.5468308842        1.8538302131       -0.8230037251
 H          4.6272135190        1.5371710801       -1.8507714989
 H          4.3667068538        3.9438592014       -1.2346753312
 H          4.1610734398        4.5705658128        1.1426261024
 H          4.2265511897        2.8349209388        2.8934682099
 H          4.5050641694        0.4475858754        2.2488747534
 H          4.4566944905       -2.4682670167        1.1810792809
 H          2.6640826206       -3.9933616435        1.2316647167
 H          0.2865382288       -4.4275689007        0.7300502982
 H         -1.1133560189       -2.6592645026       -0.2597265860
 H         -0.6091063069       -0.4158742780       -1.9599633961
 C          0.1500887336        1.2457807323       -0.8466744559
 C          1.0828066173        1.7242109450       -1.9176185616
 C         -0.3113737255        2.2675179585       -1.8408829629
 H         -0.4515334336        3.2848446039       -1.5082031615
 H         -1.0287468161        1.9470143047       -2.5823496261
 H          1.8996971800        2.3701475838       -1.6333515570
 H          1.3218955500        1.0383362889       -2.7167097290
 H          0.3249110323        1.5783417897        0.1706434183
