  62
        -98.93209743
 C          2.5078336330        1.0560286451        0.2955671177
 C          2.6674561933       -0.0750870032        1.1305632260
 C          3.4450038228       -1.1882363973        0.5715333074
 C          3.9432758780       -1.0897871793       -0.6743270903
 C          4.8116973265       -2.0979135576       -1.3800951918
 C          4.1650126800       -3.4605590494       -1.6949585297
 C          4.4118612836       -4.5386035894       -0.6322725900
 H          4.5991659879       -5.4898945675       -1.1344264377
 H          5.3217250316       -4.2897486271       -0.0847103788
 C          3.2670206812       -4.7736014038        0.3576037311
 H          2.4901764253       -5.3667013261       -0.1301787935
 H          3.6589677359       -5.3644155813        1.1882963322
 C          2.6003439783       -3.5161730242        0.9157386442
 H          1.9534121188       -3.0747138163        0.1536504046
 H          1.9489095785       -3.8130135757        1.7401609618
 C          3.5809458030       -2.4313234516        1.4022859796
 H          4.6056503939       -2.7988086362        1.3761509293
 H          3.3430507913       -2.1474944928        2.4294291602
 H          3.0968109898       -3.3260559153       -1.8629469261
 H          4.5984578586       -3.8045941415       -2.6353667803
 H          5.7157143490       -2.2551098843       -0.7872036455
 H          5.1063988210       -1.6195351265       -2.3163396097
 O          3.7415425456        0.0057504695       -1.4561985060
 C          3.0099362656        1.0944941652       -1.0055547540
 O          2.8907287649        2.0097019565       -1.8409122919
 O          2.1859764782       -0.1496411652        2.2941129020
 C          1.7211768033        2.2443810229        0.8213910891
 C          0.4343504245        2.3731469789        0.0429873101
 C          0.0951345468        3.4881571721       -0.7099653821
 C         -1.0979873812        3.5193030795       -1.4124254414
 C         -1.9740251480        2.4509772496       -1.3763576286
 C         -1.6503516845        1.3341600283       -0.6151112418
 C         -0.4567154775        1.3066530354        0.0897922022
 H         -0.2004364799        0.4387765379        0.6850670846
 N         -2.5283898793        0.2332825088       -0.5773742228
 S         -4.1739412838        0.5778979073       -0.3947986610
 O         -4.7129136262        0.9195783847       -1.6873699681
 O         -4.3625069692        1.5626526211        0.6469109776
 C         -4.8087505969       -1.0046216612        0.1213067517
 C         -5.0497188340       -1.9691721842       -0.8387642015
 C         -5.5281458304       -3.2065379561       -0.4384838424
 C         -5.7567753094       -3.4571859327        0.9065318004
 C         -5.5110676151       -2.4787587725        1.8580304674
 C         -5.0304813921       -1.2395251612        1.4648757135
 H         -4.8335743577       -0.4466392899        2.1686925077
 H         -5.6923195746       -2.6753188775        2.9024855160
 H         -6.1318102606       -4.4201908441        1.2151862376
 H         -5.7226745976       -3.9693735141       -1.1750050516
 H         -4.8678736245       -1.7258564734       -1.8725452578
 H         -2.2303750591       -0.4608234831        0.0948926202
 H         -2.9059808899        2.4682663989       -1.9180901237
 H         -1.3489414035        4.3901302851       -1.9993987375
 H          0.7658792721        4.3298861007       -0.7557899450
 H          1.4617513576        1.9834777896        1.8579349027
 C          2.5657576618        3.4994484360        0.8340670014
 C          2.2062358885        4.6293145407        1.7505554205
 C          3.4154290090        3.7908128188        2.0332898000
 H          4.3923289415        4.2237856698        1.8791411215
 H          3.3732324977        3.0913358329        2.8554363633
 H          2.3532639126        5.6411173888        1.4045980485
 H          1.3405198756        4.5019897366        2.3828622750
 H          2.9784347636        3.7398752939       -0.1386204980
