  62
        -98.93882323
 C          2.7928512411        0.1071591119       -0.3170095697
 C          2.8352571899       -0.8155516539        0.7605096946
 C          2.4411995194       -2.1936939336        0.4580805084
 C          2.0716814317       -2.5178358759       -0.7938087038
 C          1.6088032665       -3.8703801355       -1.2609865383
 C          0.1193377717       -4.1262991086       -0.9903575149
 C         -0.2325664782       -4.4205110178        0.4686719668
 H         -1.2462655419       -4.8258512394        0.4779616278
 H          0.4332128051       -5.1923921726        0.8571844412
 C         -0.1912773860       -3.1903810317        1.3861701903
 H         -1.0786547608       -3.1790163646        2.0243920306
 H         -0.2403978547       -2.2797296692        0.7829367515
 C          1.0255158333       -3.1197673368        2.3094983729
 H          0.9841416697       -3.9395633683        3.0309496184
 H          0.9717953016       -2.1783933640        2.8629640094
 C          2.3794105537       -3.1735747247        1.5903270722
 H          3.1573803178       -2.9004381132        2.3078717973
 H          2.5734540095       -4.1833526066        1.2290105979
 H         -0.1816943025       -4.9835612046       -1.5973097004
 H         -0.4514491735       -3.2565003304       -1.3262625518
 H          2.2078262308       -4.6508968183       -0.7909920046
 H          1.7756649058       -3.9022348171       -2.3398012864
 O          2.0876105057       -1.6197428231       -1.8108190263
 C          2.3932421992       -0.2805582716       -1.5962711872
 O          2.2823435993        0.4216980917       -2.6199158253
 O          3.1888558830       -0.4924706356        1.9267371331
 C          3.0575515354        1.5608870011        0.0404524626
 C          1.7681506996        2.1429529458        0.5655458373
 C          1.7025867160        2.8303967318        1.7707971796
 C          0.4846934610        3.2500147119        2.2800121588
 C         -0.6934625734        2.9750128909        1.6078464815
 C         -0.6330184854        2.3067163515        0.3947850742
 C          0.5866957216        1.9125655329       -0.1259637982
 H          0.6121193870        1.3761967337       -1.0648705966
 N         -1.8451537576        1.9309691196       -0.2613571266
 S         -2.2017232628        0.3135362093        0.1201073251
 O         -1.9652672449        0.1277258443        1.5288271098
 O         -1.5039904714       -0.5777759603       -0.7837720853
 C         -3.9527461796        0.2660245281       -0.2103260596
 C         -4.4170914592       -0.2727767831       -1.3938163841
 C         -5.7796207211       -0.2545220784       -1.6494473052
 C         -6.6479770130        0.3037714557       -0.7240630517
 C         -6.1659714366        0.8414668418        0.4603477412
 C         -4.8056230985        0.8247669296        0.7218391579
 H         -4.3836470620        1.2227304609        1.6296799397
 H         -6.8445443407        1.2731602469        1.1782374706
 H         -7.7071943073        0.3185689097       -0.9267792502
 H         -6.1564778183       -0.6739308032       -2.5684142513
 H         -3.7058405913       -0.7012757461       -2.0818989798
 H         -1.7380327698        1.9704696592       -1.2679461143
 H         -1.6519647674        3.2534241949        2.0135676501
 H          0.4518441439        3.7724827881        3.2238529557
 H          2.6115572393        3.0046986911        2.3279143575
 H          3.7707031119        1.5284601762        0.8795675790
 C          3.6889992055        2.3827447777       -1.0706685934
 C          2.9494909528        3.4423281618       -1.8258749512
 C          4.0045098029        3.8307680028       -0.8367531248
 H          4.9411830465        4.2211575188       -1.2038473439
 H          3.6763418952        4.2652769252        0.0953668040
 H          3.1571021496        3.5399431387       -2.8802899280
 H          1.9174114799        3.6244457711       -1.5692274877
 H          4.4141113133        1.8087338714       -1.6373061248
