  62
        -98.93800288
 C         -1.5083453765       -0.1983673633       -0.7314893773
 C         -2.7786796663       -0.7735643744       -0.9841224074
 C         -3.8454479519       -0.4541331468       -0.0247979561
 C         -3.5575885769        0.3195029715        1.0375224170
 C         -4.5455078941        0.7909646466        2.0665626378
 C         -5.3870369210        1.9508179444        1.4965891358
 C         -6.8719852720        1.6286487863        1.3283043750
 H         -7.3526085830        1.6482060019        2.3087048016
 H         -7.3137710943        2.4274478622        0.7288559214
 C         -7.1926539503        0.2801588344        0.6764463303
 H         -7.0952438400       -0.5169165224        1.4150882649
 H         -8.2454355527        0.3093174321        0.3875687846
 C         -6.3539623924       -0.0863565148       -0.5547619602
 H         -5.9603688727        0.8107327306       -1.0329072005
 H         -7.0103183650       -0.5715636545       -1.2799935414
 C         -5.1972867239       -1.0639413574       -0.2747429957
 H         -5.4639285246       -1.7152287878        0.5624245958
 H         -5.0577515440       -1.7006380268       -1.1533937396
 H         -5.2975249327        2.8200721745        2.1498741350
 H         -4.9639074740        2.2381302976        0.5318313915
 H         -5.1856058956       -0.0355077404        2.3674549368
 H         -3.9755706422        1.1243250289        2.9342231934
 O         -2.3223353914        0.8370656865        1.2588978683
 C         -1.2662154985        0.5951093792        0.3901884495
 O         -0.2030337415        1.1489907624        0.7250318397
 H          2.0976506427       -0.1530837562       -0.5508073436
 C          1.7569735606       -1.1700489711       -0.4786972344
 C          0.5318601512       -1.5287013803       -1.0171200321
 C          0.1122953980       -2.8523063877       -0.9039898639
 C          0.9039702195       -3.7894368710       -0.2692689502
 C          2.1227684448       -3.4237973989        0.2770216525
 C          2.5468643444       -2.1049658932        0.1771309979
 N          3.7863621073       -1.7004924600        0.7015824198
 S          3.8439953079       -0.3269429623        1.6714532352
 O          5.0860114287       -0.4712611018        2.4050702388
 O          2.6509651927       -0.2000311848        2.4741931039
 C          4.0184722741        1.0236649655        0.5261641923
 C          5.1724623267        1.0732632429       -0.2314905757
 C          5.3353119917        2.1094731576       -1.1362833143
 C          4.3470798297        3.0742512067       -1.2645194068
 C          3.1972207761        3.0111522375       -0.4925448770
 C          3.0257541901        1.9770715061        0.4156805513
 H          2.1292893086        1.8797270345        1.0093389057
 H          2.4245558191        3.7570497246       -0.5943086959
 H          4.4710004555        3.8800250018       -1.9710709916
 H          6.2275464443        2.1615733805       -1.7391222263
 H          5.9164582502        0.3064697762       -0.0941725046
 H          4.3191729799       -2.4482806603        1.1237189453
 H          2.7399669866       -4.1535763797        0.7795936348
 H          0.5693121036       -4.8131630769       -0.1923584950
 H         -0.8469121700       -3.1319960140       -1.3169691348
 C         -0.3759269556       -0.5286153728       -1.6916682896
 H         -0.8575651561       -1.0346728566       -2.5400739743
 C          0.3433117094        0.7031048270       -2.1979372717
 C          1.2793404863        0.5795534517       -3.3619574920
 C         -0.0322569797        1.2851576804       -3.5261994769
 H         -0.0314749019        2.3591951618       -3.6350252427
 H         -0.8116160251        0.7906109879       -4.0874317748
 H          2.1849394831        1.1667458993       -3.3565792403
 H          1.3889547682       -0.3964833652       -3.8097254771
 H          0.6077335003        1.3984628776       -1.4115386176
 O         -3.0098928751       -1.5230181278       -1.9711557303
