  62
        -98.94265158
 C         -1.4296251000       -1.4811315876        0.3050773655
 C         -1.9455516109       -0.9998273804       -0.9234556741
 C         -2.8940884589        0.1210985911       -0.8223954619
 C         -3.2111692291        0.6156827475        0.3878661017
 C         -4.1215803946        1.7851788878        0.6248371951
 C         -3.3388622632        3.1048452318        0.6634210993
 C         -2.3723337238        3.2835198341       -0.5073654259
 H         -1.8953920374        4.2592205165       -0.3926431218
 H         -1.5838989003        2.5299989139       -0.4376913334
 C         -3.0324136164        3.2025138912       -1.8910852818
 H         -4.1092016791        3.3482158798       -1.7977455808
 H         -2.6484527869        4.0155025010       -2.5110738675
 C         -2.7637163818        1.9010058752       -2.6487755880
 H         -1.6882887251        1.7051440648       -2.6725195150
 H         -3.0912287259        2.0362276145       -3.6831518453
 C         -3.4700589642        0.6527249602       -2.1048912880
 H         -4.5376124212        0.8538909717       -1.9946118687
 H         -3.3457292921       -0.1457419556       -2.8425904062
 H         -4.0534367728        3.9297262508        0.6759567375
 H         -2.7649002789        3.1367054516        1.5916266266
 H         -4.8726555361        1.8185606423       -0.1621023001
 H         -4.6216897412        1.6415978244        1.5840547219
 O         -2.7000097228        0.1243652557        1.5443965614
 C         -1.8066880789       -0.9338841266        1.5331178056
 O         -1.4268641812       -1.2970440460        2.6633420554
 H          0.4565483655       -0.2714776413       -0.7277840579
 C          1.2270340558       -1.0289372349       -0.6737793842
 C          0.9254749986       -2.2841662441       -0.1700735800
 C          1.9460628619       -3.2302138613       -0.1131725050
 C          3.2258677538       -2.9240634255       -0.5375240519
 C          3.5205070225       -1.6669931554       -1.0376125456
 C          2.5085685397       -0.7235376046       -1.1135899188
 N          2.8158950043        0.5730581634       -1.5992644378
 S          3.5210991760        1.5682946614       -0.4492030831
 O          3.6985248149        2.8547736499       -1.0817212355
 O          4.7096489428        0.9196270605        0.0394850622
 C          2.2980682986        1.6874929464        0.8433005280
 C          2.1861977634        0.6552653248        1.7544388310
 C          1.1617963915        0.6946475365        2.6868871862
 C          0.2767404985        1.7615937866        2.6956683493
 C          0.4097596855        2.7957185243        1.7820867124
 C          1.4218300132        2.7540636027        0.8366058243
 H          1.5542921993        3.5320724571        0.1015620861
 H         -0.2746745940        3.6288139330        1.7981256550
 H         -0.5263601745        1.7731892987        3.4160468872
 H          1.0348783475       -0.1147074318        3.3877437352
 H          2.8977292490       -0.1542564981        1.7234843649
 H          2.0116855377        1.0478914228       -1.9860786248
 H          4.5146325128       -1.3987461513       -1.3548969146
 H          4.0041340094       -3.6690702362       -0.4764965094
 H          1.7307034069       -4.2127125816        0.2760330085
 C         -0.4492305700       -2.6334762731        0.3554845846
 H         -0.3365272479       -2.8804959251        1.4215379156
 C         -1.0010328339       -3.8548340699       -0.3624527999
 C         -0.8255091063       -5.2263403505        0.2137010409
 C         -2.1747486343       -4.5752671884        0.2282722907
 H         -2.9416464228       -4.9445395826       -0.4356761614
 H         -2.5539816173       -4.2111181110        1.1725796721
 H         -0.6599844451       -6.0507683872       -0.4630591125
 H         -0.3105579069       -5.3183089246        1.1583845814
 H         -0.9783549684       -3.7508076963       -1.4405071144
 O         -1.6317427461       -1.4652528163       -2.0506932783
