  62
        -98.94542744
 C         -2.5958105802        0.0736116148        0.5284680370
 C         -2.5176788913        0.8079538718       -0.6795334036
 C         -2.0561191693        2.1946420802       -0.5538415626
 C         -1.7172201547        2.6798770294        0.6540270328
 C         -1.1754707891        4.0549113389        0.9345501381
 C          0.3346384555        4.1745714595        0.6823942205
 C          0.7475513091        4.2384606977       -0.7892279451
 H          0.1409550524        4.9829369571       -1.3066660208
 H          1.7825407060        4.5853457911       -0.8134336767
 C          0.6642834059        2.8945794422       -1.5266682557
 H          0.6473379406        2.0808792946       -0.7975347551
 H          1.5636002518        2.7588596996       -2.1329951409
 C         -0.5312397342        2.7550614135       -2.4693925610
 H         -0.4237649531        3.4546961216       -3.3021258892
 H         -0.5280896587        1.7403168582       -2.8757653842
 C         -1.8953544369        2.9944502371       -1.8117145857
 H         -2.0336975487        4.0555961527       -1.6053695037
 H         -2.6703874828        2.6679722524       -2.5100257160
 H          0.8346273155        3.3270111281        1.1588820079
 H          0.6762597872        5.0878299755        1.1757573497
 H         -1.7090013338        4.7940065869        0.3358891342
 H         -1.3675591471        4.2563499388        1.9906267149
 O         -1.8395290532        1.9527184757        1.7973085158
 C         -2.2444288312        0.6291781800        1.7576708826
 O         -2.2634995214        0.0623862222        2.8721766308
 H         -0.3093751879       -0.9077956805        0.5990125859
 C         -0.5146149791       -1.6771640513       -0.1304316732
 C         -1.8248142449       -2.0958733264       -0.3254006461
 C         -2.0663779335       -3.1059492357       -1.2462329450
 C         -1.0173878383       -3.6600780232       -1.9616457040
 C          0.2806420014       -3.2187661884       -1.7843220907
 C          0.5326104004       -2.2055872832       -0.8636564169
 N          1.8263989920       -1.6814683090       -0.7048653286
 S          2.2497282008       -0.8416777378        0.6917303823
 O          2.0627501284       -1.6832150786        1.8548592509
 O          1.5848376650        0.4360247790        0.7059483020
 C          3.9883088321       -0.6031378713        0.3816420551
 C          4.9036254551       -1.5019563428        0.8957792357
 C          6.2499645295       -1.3178567396        0.6221318747
 C          6.6552720896       -0.2453116706       -0.1580071811
 C          5.7250044517        0.6499059746       -0.6651280312
 C          4.3775689110        0.4716792864       -0.3948440108
 H          3.6174850923        1.1443449929       -0.7576584824
 H          6.0437262446        1.4849316962       -1.2678381773
 H          7.7033967659       -0.1040574793       -0.3693488197
 H          6.9758577991       -2.0093836956        1.0183936676
 H          4.5428288608       -2.3137988861        1.5067482375
 H          2.5581907707       -2.3092748269       -1.0064799081
 H          1.0908079134       -3.6416457058       -2.3580856436
 H         -1.2168036014       -4.4447844332       -2.6756879922
 H         -3.0733853196       -3.4538823985       -1.4091471675
 C         -2.9039861869       -1.4124317583        0.4842824615
 H         -2.8302305767       -1.7716513730        1.5223468646
 C         -4.3038759858       -1.6731074608       -0.0287010875
 C         -5.0617709461       -2.8826232052        0.4275940984
 C         -5.4585471287       -1.5220678007        0.9138426399
 H         -6.3734512564       -1.0855139378        0.5427402893
 H         -5.2303625858       -1.2552040986        1.9359222184
 H         -4.5728734890       -3.5454904981        1.1258071677
 H         -5.7100117455       -3.3812690232       -0.2770843172
 H         -4.4409553821       -1.3333182308       -1.0484149881
 O         -2.8085124478        0.3305299741       -1.8076203669
