  62
        -98.94368674
 C         -1.6469989921       -0.5879380818       -0.2978837422
 C         -2.8968484032       -1.1532130558       -0.6459388835
 C         -4.0445750889       -0.7047195257        0.1503919824
 C         -3.8568867575        0.1657701317        1.1592186399
 C         -4.9224849427        0.6943669646        2.0809224056
 C         -5.6985568751        1.8925012327        1.5171025494
 C         -6.6812259637        1.5605548651        0.3934697551
 H         -7.3341053116        0.7471156506        0.7116343879
 H         -7.3083126836        2.4420220364        0.2453141094
 C         -6.0167994468        1.1980022230       -0.9420429924
 H         -4.9764500177        1.5309118897       -0.9339827156
 H         -6.5169619530        1.7306220429       -1.7540497100
 C         -6.0556895608       -0.2908698577       -1.2863890261
 H         -5.5270272873       -0.4378198535       -2.2317172412
 H         -7.0914089115       -0.6079237951       -1.4275664798
 C         -5.4063090621       -1.1994538138       -0.2342612954
 H         -6.0468370384       -1.2750421449        0.6442879737
 H         -5.2877189270       -2.1955993741       -0.6678470563
 H         -6.2608323705        2.3339395725        2.3431930077
 H         -4.9822378687        2.6387440230        1.1661154805
 H         -5.6192320829       -0.1055511414        2.3331444019
 H         -4.4131955388        1.0124970185        2.9930891339
 O         -2.6336851149        0.6645046765        1.4797428005
 C         -1.5018213975        0.3157593142        0.7552856974
 O         -0.4552985101        0.8650573121        1.1449704759
 O         -3.0445597548       -1.9975103305       -1.5703909143
 C         -0.4122913337       -0.9953590661       -1.0820393329
 C          0.5786357136       -1.6451657634       -0.1491376026
 C          0.1747163293       -2.7530195069        0.5927401175
 C          1.0394031829       -3.3565681163        1.4841805881
 C          2.3224970355       -2.8672266111        1.6592395247
 C          2.7361123866       -1.7633422651        0.9232868314
 C          1.8680037617       -1.1685808430        0.0168861979
 H          2.2094516365       -0.3248515454       -0.5558381869
 N          4.0080953818       -1.2197512757        1.1174678313
 S          4.7782216780       -0.2566809549        0.0023876457
 O          4.6846085047       -0.7993831660       -1.3332303133
 O          6.1195699702       -0.1162568360        0.5283175375
 C          3.9407308311        1.3119500664        0.0882048064
 C          3.6849972953        1.9989864887       -1.0817226034
 C          3.0403307293        3.2232602018       -1.0143575960
 C          2.6667002243        3.7377374807        0.2173647571
 C          2.9365318716        3.0385299317        1.3833409138
 C          3.5814505478        1.8141719535        1.3222772144
 H          3.7972226112        1.2426513646        2.2095432119
 H          2.6378424236        3.4393195921        2.3384634051
 H          2.1577379079        4.6874792907        0.2686094843
 H          2.8271414906        3.7681418373       -1.9204113008
 H          3.9834726065        1.5549633838       -2.0185385856
 H          4.6318005683       -1.7271672452        1.7247891149
 H          2.9950433543       -3.3309885927        2.3644550902
 H          0.7133812244       -4.2151276823        2.0520484400
 H         -0.8308501741       -3.1296413403        0.4629645718
 H         -0.7577387537       -1.7533844834       -1.8004447412
 C          0.1486475079        0.1844846720       -1.8469187138
 C          0.9816817960       -0.0441929732       -3.0712431762
 C         -0.4061354612        0.5057501777       -3.2009680228
 H         -0.5269585294        1.5427627167       -3.4755503437
 H         -1.1794542060       -0.1414863173       -3.5883843581
 H          1.8174960239        0.6126659700       -3.2577370510
 H          1.1566126224       -1.0661467122       -3.3721647217
 H          0.4053815893        1.0180797993       -1.2021616089
