  62
        -98.94280383
 C         -1.8133544180       -0.8788671663        0.2712322250
 C         -3.1650445889       -1.2047539309        0.5519873867
 C         -4.0871216418       -0.0722023265        0.7089477314
 C         -3.6053363813        1.1814808862        0.6332658912
 C         -4.4380113517        2.4271484863        0.7145142562
 C         -4.9022979774        2.8755424385       -0.6784406934
 C         -5.5236287613        1.7559742342       -1.5137533821
 H         -5.8406383843        2.1953480577       -2.4620999762
 H         -4.7551342864        1.0148838034       -1.7461485126
 C         -6.7179876062        1.0560480904       -0.8502062776
 H         -7.1133096786        1.6792456856       -0.0472350342
 H         -7.5116419520        0.9403794298       -1.5913441369
 C         -6.4126899952       -0.3399960253       -0.3038449913
 H         -7.3616371862       -0.8240379019       -0.0580993831
 H         -5.9323805691       -0.9405721519       -1.0808656853
 C         -5.5358964648       -0.3867435805        0.9539003808
 H         -5.5593453653       -1.4109653582        1.3377123745
 H         -5.9513047373        0.2754231154        1.7162455082
 H         -5.6248645141        3.6846438186       -0.5576531853
 H         -4.0397513683        3.2683938484       -1.2217798222
 H         -3.8313894286        3.2185014962        1.1578041927
 H         -5.2991219013        2.2413456289        1.3534770538
 O         -2.2932046051        1.4558840292        0.4283553553
 C         -1.3640262112        0.4411475399        0.2336715132
 O         -0.2039183236        0.8529033145        0.0538214489
 O         -3.5788243499       -2.3888373341        0.6710967649
 C         -0.8426791563       -2.0263637982        0.0619367277
 C          0.4297739133       -1.8013727614        0.8394708941
 C          0.3537661208       -1.7051309024        2.2272686333
 C          1.4902030647       -1.5069266134        2.9858144835
 C          2.7292450247       -1.4057167727        2.3770990236
 C          2.8185648514       -1.5058516722        0.9942732157
 C          1.6727084521       -1.7055404773        0.2340573637
 H          1.7696197584       -1.7551077833       -0.8370849149
 N          4.0725493174       -1.4580470660        0.3605492175
 S          4.3884197147       -0.4689567636       -0.9496390297
 O          3.4566749374       -0.7400528180       -2.0127155195
 O          5.7840658264       -0.7082130739       -1.2491687612
 C          4.2032495392        1.1972198889       -0.3388043125
 C          5.3433174956        1.9385490107       -0.0917282446
 C          5.2158030104        3.2181946941        0.4225406765
 C          3.9546618774        3.7306233650        0.6885323467
 C          2.8224167368        2.9709159511        0.4399335813
 C          2.9404016921        1.6902318317       -0.0791784548
 H          2.0641413627        1.0924133605       -0.2730715787
 H          1.8360272301        3.3557037145        0.6453836599
 H          3.8525340900        4.7262148345        1.0912011752
 H          6.0962360495        3.8098727106        0.6155620447
 H          6.3020317853        1.4993562305       -0.3158595702
 H          4.8515924824       -1.4154779163        1.0024270521
 H          3.6200282644       -1.2539378374        2.9678197623
 H          1.4135027441       -1.4298410477        4.0599454272
 H         -0.6150003784       -1.7831335097        2.7024065655
 H         -1.3538163858       -2.9001256021        0.5012559062
 C         -0.5937279532       -2.3619242657       -1.4010351141
 C         -1.6366763452       -2.1100263924       -2.4473361175
 C         -0.3738912034       -1.3044807851       -2.4390786952
 H          0.3667287688       -1.4835215551       -3.2051916835
 H         -0.4209560776       -0.2744960287       -2.1217104203
 H         -1.7746882307       -2.8483672500       -3.2228537512
 H         -2.5517894173       -1.6266476370       -2.1368354938
 H         -0.0169498755       -3.2754242291       -1.5136072203
