  62
        -98.94117020
 C         -2.2522937659       -0.8865361649       -0.1003904293
 C         -3.0060442714       -0.4440372063        1.0187849679
 C         -3.8821789140        0.7113375574        0.8021015245
 C         -3.9068854290        1.3095658651       -0.4021569471
 C         -4.7300612725        2.5110327928       -0.7798637417
 C         -6.1717118562        2.1771271801       -1.1877636293
 C         -7.0942362175        1.7652353061       -0.0397933724
 H         -8.1139560296        1.7747676669       -0.4298220796
 H         -7.0417367273        2.5125585509        0.7525240347
 C         -6.8009420291        0.3747766291        0.5408143449
 H         -6.1840019329       -0.1903427246       -0.1616725136
 H         -7.7371185556       -0.1754039347        0.6588052002
 C         -6.1096273001        0.3896329559        1.9042364105
 H         -5.9179258166       -0.6440559408        2.2028484492
 H         -6.7735652565        0.8373106634        2.6469314305
 C         -4.7734748299        1.1437074276        1.9269813639
 H         -4.2622638838        0.9098235917        2.8640007504
 H         -4.9466132181        2.2188598027        1.8823466270
 H         -6.1471477798        1.3839804608       -1.9386621514
 H         -6.5904582378        3.0687842431       -1.6600066650
 H         -4.2292916985        2.9755783713       -1.6322038280
 H         -4.7392426939        3.2223604502        0.0466203259
 O         -3.1427543379        0.8826207846       -1.4404346093
 C         -2.3123316815       -0.2276396620       -1.3285473339
 O         -1.7017169930       -0.4934709319       -2.3816959627
 O         -2.9523752724       -0.9994013142        2.1482165724
 C         -1.3830190472       -2.1147587952        0.1114637500
 C          0.0368202655       -1.7297459483        0.4393509483
 C          0.6533404040       -2.1879162258        1.5975180372
 C          1.9542227047       -1.8201873372        1.8949388198
 C          2.6673137169       -0.9958152857        1.0431313934
 C          2.0572115794       -0.5249071023       -0.1123931664
 C          0.7514841003       -0.8911662630       -0.4055663517
 H          0.2795306349       -0.5205609199       -1.3039588904
 N          2.7746023904        0.3010163535       -0.9954555527
 S          3.5804252555        1.6293585365       -0.3601896264
 O          2.9352026062        2.1193675157        0.8365302510
 O          3.6974876031        2.5650921015       -1.4572442667
 C          5.1966898982        0.9915359839        0.0312091712
 C          5.7195600235        1.1661501045        1.2975520947
 C          6.9836682256        0.6688633557        1.5749672692
 C          7.6985371030        0.0103706480        0.5862949714
 C          7.1599442227       -0.1547236713       -0.6812595978
 C          5.8976116150        0.3409983565       -0.9655457056
 H          5.4440655184        0.2358487267       -1.9369970799
 H          7.7185274180       -0.6677486264       -1.4474638537
 H          8.6811664866       -0.3769057257        0.8047974506
 H          7.4038149911        0.7964027539        2.5596845201
 H          5.1239681527        1.6787582619        2.0362011549
 H          2.2453887068        0.5620014065       -1.8155749399
 H          3.6806462593       -0.7066898570        1.2689211202
 H          2.4195870352       -2.1809802592        2.7993407344
 H          0.0997176392       -2.8223651749        2.2740425731
 H         -1.8062632790       -2.5959847204        1.0073656207
 C         -1.4845993612       -3.1187956693       -1.0299090645
 C         -0.3586958844       -3.4492613036       -1.9589357866
 C         -0.7868520698       -4.4428738548       -0.9238911792
 H         -1.3105378020       -5.3322876094       -1.2396164374
 H         -0.1340408942       -4.5890669176       -0.0764737666
 H         -0.6059716059       -3.6324841688       -2.9935890679
 H          0.5853777176       -2.9464449514       -1.8222665410
 H         -2.4785043183       -3.1281810728       -1.4667031551
