  62
        -98.94468108
 C         -2.0178897162       -0.7506762881        0.5622031782
 C         -1.9624958867       -0.0486417021       -0.6659928265
 C         -1.9927992062        1.4143156489       -0.5651951135
 C         -2.0126862087        2.0008860275        0.6449260918
 C         -1.9896322762        3.4818580335        0.9122042488
 C         -3.3651242688        4.1584743053        0.8304842508
 C         -3.9330909533        4.3103619739       -0.5811060966
 H         -4.7858667141        4.9884386762       -0.5116396688
 H         -3.1885775649        4.7857480159       -1.2202304540
 C         -4.3984428430        2.9948252717       -1.2205386921
 H         -5.3799246436        3.1389344922       -1.6775178598
 H         -4.5131264872        2.2339252539       -0.4452271460
 C         -3.4674870411        2.4546776733       -2.3060933763
 H         -3.8719626187        1.5046330476       -2.6638272660
 H         -3.4430478699        3.1498594508       -3.1480862019
 C         -2.0279366796        2.2077448668       -1.8358914602
 H         -1.5062634628        1.6247343902       -2.5989489230
 H         -1.5031611998        3.1541578265       -1.7053399884
 H         -3.2631569384        5.1543034288        1.2678831130
 H         -4.0674250298        3.5939372172        1.4479948717
 H         -1.6018425568        3.6058917953        1.9259278629
 H         -1.2997266687        3.9633734568        0.2181353494
 O         -2.0363990639        1.2900796642        1.8053868573
 C         -2.0399946873       -0.0952813193        1.7913840473
 O         -2.0663739855       -0.6213232974        2.9248052055
 H          0.4615927099       -1.1892440559        0.9514689735
 C          0.5072954304       -1.9820317491        0.2175811284
 C         -0.6473689998       -2.6822802601       -0.1084428570
 C         -0.5593960694       -3.7107277120       -1.0371434218
 C          0.6495803308       -3.9973442595       -1.6482760453
 C          1.7841693771       -3.2620867637       -1.3599970110
 C          1.7101894972       -2.2450320445       -0.4139947900
 N          2.8445678943       -1.4866337897       -0.0734344085
 S          2.6184292721        0.1311266862        0.3580019387
 O          2.2699346869        0.1927016771        1.7567950891
 O          1.7138329917        0.7826114175       -0.5619021368
 C          4.2777224785        0.7465171669        0.1328933205
 C          4.6025038656        1.4131658407       -1.0332974923
 C          5.9034493959        1.8576257042       -1.2114743978
 C          6.8528363198        1.6257202065       -0.2276393494
 C          6.5117411717        0.9557419172        0.9381021351
 C          5.2126470065        0.5100575748        1.1231270457
 H          4.8969820398       -0.0059703554        2.0148742909
 H          7.2514842907        0.7796718839        1.7022219791
 H          7.8643193780        1.9722468371       -0.3688175969
 H          6.1700665239        2.3819905901       -2.1149150541
 H          3.8279672528        1.5760187366       -1.7657245376
 H          3.5982264907       -1.5896225587       -0.7397173395
 H          2.7183237221       -3.4690653974       -1.8594827536
 H          0.7036196245       -4.7934615281       -2.3753060412
 H         -1.4395491579       -4.2769304427       -1.2945224274
 C         -1.9334303793       -2.2667773262        0.5659846475
 H         -1.8820883585       -2.5679406128        1.6231762269
 C         -3.1707341399       -2.8753346444       -0.0597969577
 C         -3.6551561919       -4.2235612749        0.3796268636
 C         -4.4148033746       -2.9914814734        0.7668591260
 H         -5.3669795738       -2.7999743414        0.2954824336
 H         -4.3591187214       -2.6537302495        1.7918264708
 H         -4.0910688239       -4.8804771369       -0.3578011463
 H         -3.0910488132       -4.7312028887        1.1474072000
 H         -3.2848490173       -2.6007323085       -1.1021098105
 O         -1.8918935471       -0.6142424075       -1.7887584376
