  62
        -98.93313827
 C         -2.6479087081       -0.0145242046        0.5416066387
 C         -2.1525128713        0.4003366849       -0.7187403724
 C         -1.7102808020        1.8062991687       -0.8309616078
 C         -1.7566866938        2.5942406311        0.2560550174
 C         -1.3024970176        4.0209672811        0.4095870104
 C          0.1848923160        4.0858297495        0.7998378408
 C          1.1474134809        4.2077305210       -0.3783620843
 H          0.9873960554        5.1651502597       -0.8795662474
 H          2.1614194305        4.2094937287        0.0276185384
 C          1.0376208620        3.0813522311       -1.4073185357
 H          1.9634099805        3.0601697797       -1.9866914371
 H          0.9663089231        2.1202436609       -0.8925321566
 C         -0.1478315406        3.2483075336       -2.3686662566
 H         -0.5659450121        4.2495254673       -2.2679926686
 H          0.2076871625        3.1610415350       -3.3981047077
 C         -1.2491293496        2.1996699169       -2.2091313358
 H         -2.1293913471        2.5177466893       -2.7812098412
 H         -0.9094723237        1.2618000175       -2.6625379021
 H          0.4284236559        3.1840029585        1.3684118039
 H          0.3378330538        4.9446677345        1.4569311707
 H         -1.4977795958        4.5929356542       -0.4925296646
 H         -1.8974646341        4.4408939698        1.2235210993
 O         -2.2100081964        2.1431647650        1.4615624372
 C         -2.6300619449        0.8418655130        1.6427244821
 O         -2.9619292587        0.5672405790        2.8157082422
 H         -0.5068353459       -1.2044569030        1.5278809785
 C         -0.6115531721       -2.0004436551        0.7988771518
 C         -1.8763360279       -2.3181545381        0.3189724491
 C         -1.9865820298       -3.3331697162       -0.6205705360
 C         -0.8544293874       -3.9774518254       -1.0920403273
 C          0.4071826368       -3.6137366103       -0.6543321150
 C          0.5211508996       -2.6184388978        0.3035605098
 N          1.8181723157       -2.1628456658        0.7084583883
 S          2.0861784150       -0.6082735312        0.0845108362
 O          1.4789802735        0.3932677895        0.9393475131
 O          1.6986935261       -0.6126743110       -1.3014492254
 C          3.8623788136       -0.5029956853        0.2060146565
 C          4.6107109456       -1.3263648851       -0.6131830208
 C          5.9922292962       -1.2895900230       -0.5189399798
 C          6.5996791027       -0.4342270907        0.3888839101
 C          5.8355164260        0.3868218853        1.2034309390
 C          4.4520895372        0.3523653157        1.1150841939
 H          3.8175341988        0.9735690807        1.7269238636
 H          6.3094612396        1.0522693945        1.9070224636
 H          7.6754618303       -0.4066035811        0.4611446170
 H          6.5898903912       -1.9261732918       -1.1512215969
 H          4.0921672601       -1.9676508678       -1.3062980635
 H          1.8832918210       -2.0893932031        1.7165121694
 H          1.2963534531       -4.0755400861       -1.0509702016
 H         -0.9561469185       -4.7537314425       -1.8351838234
 H         -2.9559726652       -3.5916561359       -1.0151561819
 C         -3.0179654666       -1.4660402712        0.8158221410
 H         -3.0422149693       -1.5419289143        1.9162249672
 C         -4.3868487894       -1.9050929826        0.3249316836
 C         -5.5025555651       -0.9136717350        0.1840446204
 C         -4.9158437765       -1.5598498530       -1.0331013776
 H         -5.5073284604       -2.3008736393       -1.5510186011
 H         -4.2851181513       -0.9718552024       -1.6797036201
 H         -6.4930172090       -1.2055872175        0.4993873964
 H         -5.2699352024        0.1245673209        0.3736550678
 H         -4.6589797667       -2.8798266828        0.7187213852
 O         -2.0792671983       -0.3595835373       -1.7189079949
