  62
        -98.93149887
 C          2.3853776730        1.1296755840        0.3419225938
 C          2.6089463806       -0.0991619814        1.0160672353
 C          3.8766003231       -0.7837789631        0.7332978671
 C          4.7597625255       -0.2191807276       -0.1091984110
 C          6.1233569837       -0.7438689950       -0.4738980897
 C          6.1562526784       -2.0745982373       -1.2498865499
 C          6.3184187747       -3.3176128444       -0.3661774495
 H          6.9987251659       -4.0136563225       -0.8609221568
 H          6.7963932994       -3.0238707463        0.5690362146
 C          5.0327381360       -4.0920875396       -0.0610438460
 H          5.2448615722       -4.7836064879        0.7572333240
 H          4.7602645936       -4.6895357858       -0.9340080197
 C          3.8149879294       -3.2454610555        0.3107935360
 H          3.4030113471       -2.7778597387       -0.5869004968
 H          3.0385881073       -3.9115831840        0.6927675267
 C          4.0924067207       -2.1372515896        1.3452311187
 H          3.3889925980       -2.2191083535        2.1764277018
 H          5.1036050429       -2.2229260542        1.7404872618
 H          7.0109010326       -2.0242975922       -1.9263729493
 H          5.2610998446       -2.1580718268       -1.8656152404
 H          6.5798308144        0.0368459047       -1.0855848786
 H          6.7155108727       -0.8422167925        0.4387025309
 O          4.5180860218        0.9706502360       -0.7199444005
 C          3.3317407741        1.6651509109       -0.5323880514
 O          3.2725933195        2.7235048000       -1.1876185607
 H         -1.1401578554        0.2750651373        0.6852826232
 C         -1.0152433782        0.7556785877       -0.2744937292
 C          0.0759558454        1.5826950362       -0.5001593995
 C          0.2239974555        2.1700693619       -1.7528612274
 C         -0.7084254452        1.9379842596       -2.7471073558
 C         -1.8096396399        1.1341265656       -2.5106749157
 C         -1.9595979502        0.5320833138       -1.2668772033
 N         -3.0507015471       -0.3123883172       -1.0065002975
 S         -3.7187066444       -0.3047731779        0.5444020856
 O         -3.8153941072        1.0526500667        1.0324772288
 O         -2.9910474051       -1.2326263212        1.3728357400
 C         -5.3435986461       -0.9538074538        0.1997473101
 C         -5.5109975430       -2.3236336164        0.1234818996
 C         -6.7669189365       -2.8292031520       -0.1726265949
 C         -7.8279209062       -1.9619819515       -0.3876749976
 C         -7.6448247662       -0.5896571183       -0.3067333609
 C         -6.3913080876       -0.0772209595       -0.0111680122
 H         -6.2041061187        0.9813965321        0.0720425631
 H         -8.4722139073        0.0816641761       -0.4709076984
 H         -8.8044156244       -2.3585262710       -0.6168030685
 H         -6.9134991184       -3.8955763154       -0.2334911091
 H         -4.6591195797       -2.9573227089        0.3081966311
 H         -3.7624879929       -0.2674018901       -1.7229287314
 H         -2.5426309896        0.9656923652       -3.2850658826
 H         -0.5821386980        2.3989373523       -3.7152117274
 H          1.0838846664        2.7932605883       -1.9422578717
 C          1.0646895266        1.8292637771        0.6150384193
 H          0.6660109707        1.3433156458        1.5167236391
 C          1.2083549316        3.3120613896        0.8973923847
 C          0.0729250025        4.0285501680        1.5628410575
 C          1.3458343767        3.7789116907        2.3137235222
 H          1.9968228044        4.6154602966        2.5188997004
 H          1.3406159159        3.0281262138        3.0908062170
 H         -0.7982454989        3.4459684558        1.8263467723
 H         -0.1514425184        5.0376527645        1.2529967165
 H          1.7691356534        3.8455155028        0.1413889390
 O          1.7884154548       -0.5970167907        1.8343097603
