  62
        -98.94123864
 C         -2.0174965546       -1.2271408811        0.1225186057
 C         -2.7979677514       -0.6564782107        1.1601428781
 C         -3.9765399014        0.1085552567        0.7395148836
 C         -4.2442062940        0.2518743495       -0.5709663393
 C         -5.4227319145        0.9785200517       -1.1601301758
 C         -5.2201921022        2.4941792523       -1.2920872502
 C         -5.2525659223        3.2719234563        0.0242696346
 H         -5.3159999607        4.3315758142       -0.2311067857
 H         -6.1582242212        3.0151582771        0.5746936182
 C         -4.0245326996        3.0530465471        0.9191000914
 H         -3.6666320563        4.0168591849        1.2886767261
 H         -3.2158570916        2.6189575571        0.3259291176
 C         -4.2785710849        2.1655671525        2.1378744889
 H         -3.3366292288        2.0492052386        2.6801165802
 H         -4.9915773353        2.6554626587        2.8045901807
 C         -4.8070863861        0.7650569261        1.8008105453
 H         -4.7447590136        0.1497633483        2.7017599063
 H         -5.8492219520        0.8220292366        1.4872460870
 H         -6.0183404255        2.8748242049       -1.9335547175
 H         -4.2705185747        2.6769337284       -1.8007007071
 H         -5.5753733302        0.5642099317       -2.1590666760
 H         -6.3122608917        0.7798534801       -0.5615440218
 O         -3.4524676108       -0.2792546615       -1.5382941185
 C         -2.3088401363       -1.0072084456       -1.2251002585
 O         -1.6683146900       -1.3853302300       -2.2222429445
 H          0.1915563943        0.4383188625        0.5334326696
 C          0.7775115756       -0.2022851548       -0.1148261647
 C          0.4138575957       -1.5372532826       -0.2511163280
 C          1.1740838367       -2.3483529263       -1.0819143185
 C          2.2515948874       -1.8251431671       -1.7762966029
 C          2.5980895248       -0.4928650006       -1.6536770771
 C          1.8514131226        0.3251463949       -0.8143174571
 N          2.1985856519        1.6787720997       -0.6741675188
 S          3.8154956274        2.0773546321       -0.5227931033
 O          3.8270559327        3.3262464078        0.2065867783
 O          4.4363617266        2.1035397057       -1.8236487578
 C          4.5314633802        0.7726116814        0.4613270722
 C          4.0336237716        0.5702913213        1.7334011562
 C          4.5556707645       -0.4571005554        2.5019651722
 C          5.5619433183       -1.2608450509        1.9878486287
 C          6.0548306671       -1.0415118753        0.7111458323
 C          5.5347539514       -0.0163844981       -0.0628824590
 H          5.8869583559        0.1877365411       -1.0608572013
 H          6.8386925826       -1.6665274482        0.3149114869
 H          5.9640090116       -2.0617033443        2.5879754545
 H          4.1736295686       -0.6285477380        3.4955666007
 H          3.2550240162        1.2165177745        2.1063712994
 H          1.6282853011        2.1873900013       -0.0156571481
 H          3.4194560801       -0.0676648404       -2.2071894905
 H          2.8252697053       -2.4635824072       -2.4305655252
 H          0.9061832541       -3.3838522593       -1.2098853766
 C         -0.7857020616       -2.0182187183        0.5258146623
 H         -0.6300924747       -1.7495957736        1.5844808259
 C         -0.9671484575       -3.5279136219        0.4913781659
 C         -2.3167551662       -4.1463562890        0.6973555151
 C         -1.6479723724       -4.2358280718       -0.6399801274
 H         -1.2577559076       -5.1934754943       -0.9526163451
 H         -2.0291392228       -3.6353463720       -1.4505644831
 H         -3.1619527594       -3.4814365703        0.8023575302
 H         -2.3862969055       -5.0388170074        1.3010111067
 H         -0.1304759109       -4.0437990938        0.9523638793
 O         -2.5187171634       -0.7781576540        2.3829245995
