  62
        -98.93611936
 C         -2.2085931780       -0.9180591311        0.5837703999
 C         -2.0406779976       -0.1689011356       -0.6040993740
 C         -2.2838687213        1.2815611416       -0.5039925782
 C         -2.6294646311        1.8063215946        0.6844666453
 C         -2.9571463284        3.2399653309        1.0003945355
 C         -4.4665788996        3.5037644002        0.8637555811
 C         -4.9271273589        3.9044408804       -0.5368530062
 H         -6.0185092113        3.9449166253       -0.5208214819
 H         -4.5640426203        4.9096679812       -0.7601699322
 C         -4.4869006148        2.9640610629       -1.6612230696
 H         -4.6117698456        1.9273145176       -1.3435954226
 H         -5.1503719271        3.1245299999       -2.5129989324
 C         -3.0363993233        3.1970873445       -2.1101357515
 H         -2.6712975406        4.1300740273       -1.6816316630
 H         -3.0065119644        3.3224121962       -3.1945656813
 C         -2.0647576294        2.0585498284       -1.7732084752
 H         -2.0963023989        1.3055227741       -2.5677244480
 H         -1.0387039829        2.4453230042       -1.7606137980
 H         -4.9941559514        2.6007714448        1.1809969946
 H         -4.7442426465        4.3041202449        1.5524322950
 H         -2.6687841197        3.3986757575        2.0417319449
 H         -2.3788175399        3.9122760714        0.3736134317
 O         -2.7769592093        1.0460789158        1.8062211534
 C         -2.5523630438       -0.3179275065        1.7927826235
 O         -2.6810484344       -0.8753350039        2.9027149235
 H          0.2329593806       -1.0618943516        1.3603484928
 C          0.4928720746       -1.8053075289        0.6145563291
 C         -0.5027696175       -2.6253902861        0.0980049024
 C         -0.1460907301       -3.5716838719       -0.8532830302
 C          1.1614440277       -3.6614770357       -1.3008261089
 C          2.1393059057       -2.8143342915       -0.8123655861
 C          1.7968561017       -1.8853646581        0.1588457606
 N          2.7901661434       -0.9875670409        0.6404990108
 S          2.9544894498        0.3745295671       -0.3562779197
 O          2.0007038642        1.3897585101        0.0451614601
 O          2.9149035164       -0.0511545159       -1.7308249296
 C          4.6048412684        0.9010466776        0.0660364843
 C          5.6718689042        0.2700148748       -0.5434126109
 C          6.9598071813        0.6405895203       -0.1919603217
 C          7.1584744082        1.6290545146        0.7605733500
 C          6.0774584144        2.2538921095        1.3633260855
 C          4.7866264432        1.8868051419        1.0160347212
 H          3.9171572670        2.3523628819        1.4519716917
 H          6.2337337318        3.0240617920        2.1015218706
 H          8.1617538144        1.9159958242        1.0333907540
 H          7.8026175359        0.1583981302       -0.6603556465
 H          5.4675558798       -0.4861017025       -1.2831502621
 H          2.5464654298       -0.6400943805        1.5602057299
 H          3.1517890186       -2.8497868000       -1.1787558134
 H          1.4172523752       -4.3926522550       -2.0525265011
 H         -0.8982039285       -4.2266136069       -1.2622124508
 C         -1.9168336591       -2.4086742020        0.5815960784
 H         -1.9817251477       -2.7355800693        1.6299323670
 C         -2.9557984275       -3.1532453090       -0.2298726073
 C         -3.3012299897       -4.5725634103        0.1044142945
 C         -4.2744838846       -3.4737125379        0.4049641734
 H         -5.1681848945       -3.3944038894       -0.1954585749
 H         -4.4124017394       -3.1761107537        1.4344560516
 H         -3.5311945417       -5.2508382133       -0.7032550793
 H         -2.7842189897       -5.0308353779        0.9337897119
 H         -2.9600452634       -2.8530649533       -1.2715013727
 O         -1.7051323193       -0.6870418921       -1.7020043173
