  62
        -98.93254285
 C         -2.4768680649       -0.8509580338        0.0085846665
 C         -2.9058783627        0.2428374930        0.8004210129
 C         -4.0596606273        1.0172822766        0.3133406650
 C         -4.6497534939        0.6576385665       -0.8416507148
 C         -5.8056700915        1.2683204512       -1.6063900146
 C         -6.7088350942        2.3116221532       -0.9542308253
 C         -7.5843496682        1.7787343625        0.1795661992
 H         -8.1038022539        2.6235414948        0.6370583270
 H         -8.3405765109        1.1157395150       -0.2483679735
 C         -6.8513799975        0.9978435031        1.2674530820
 H         -7.5934720410        0.6676805491        1.9995427426
 H         -6.4039472163        0.0998005369        0.8365365495
 C         -5.7736958864        1.7770994191        2.0185171232
 H         -5.4466244007        1.1592164055        2.8592265912
 H         -6.2006227791        2.6957129341        2.4257670094
 C         -4.5240972261        2.1388856005        1.1974225743
 H         -3.7060416229        2.3351978814        1.8966328579
 H         -4.6811564191        3.0450726766        0.6172215442
 H         -7.3749964923        2.6807296521       -1.7387890734
 H         -6.1208745724        3.1599102490       -0.6165377142
 H         -5.3638604158        1.7073702773       -2.5076990008
 H         -6.4175983624        0.4258253100       -1.9442101859
 O         -4.1976504879       -0.3989482931       -1.5758308820
 C         -3.1132764793       -1.1754193175       -1.1887616771
 O         -2.8472022182       -2.0900144456       -1.9883150936
 O         -2.3414530667        0.5621166343        1.8821161754
 C         -1.2909475534       -1.6420732363        0.5295911748
 C          0.0037446190       -1.0876229863       -0.0079511989
 C          0.1990333888       -0.8980045268       -1.3725168188
 C          1.3982620493       -0.3959247263       -1.8440002213
 C          2.4209507830       -0.0673929939       -0.9708453428
 C          2.2363000490       -0.2501654896        0.3926167148
 C          1.0321552235       -0.7601499858        0.8630509166
 H          0.8872624154       -0.8897189656        1.9273095467
 N          3.2611918787        0.0989953506        1.2851019490
 S          4.8284445882       -0.4096164118        0.9679183911
 O          4.8384325429       -1.6422871455        0.2156321034
 O          5.4812377003       -0.4364192503        2.2582142860
 C          5.5211462737        0.9100387679       -0.0056387180
 C          5.4947856883        2.1882504433        0.5167547449
 C          6.0382974361        3.2251682315       -0.2244342516
 C          6.5987877535        2.9674797733       -1.4667360948
 C          6.6214608883        1.6779072333       -1.9753203525
 C          6.0781961164        0.6362764169       -1.2393687361
 H          6.0696293628       -0.3811769700       -1.5970844836
 H          7.0585180158        1.4795724818       -2.9408034028
 H          7.0209368475        3.7765308158       -2.0417015379
 H          6.0229282584        4.2293269805        0.1678424518
 H          5.0544953164        2.3466064124        1.4870831846
 H          3.0238815817       -0.0301839543        2.2578306182
 H          3.3552152753        0.3260271339       -1.3364037112
 H          1.5381516300       -0.2559883204       -2.9052563525
 H         -0.5970542760       -1.1533078220       -2.0558343150
 H         -1.2958266030       -1.4641603248        1.6170492984
 C         -1.4261671236       -3.1439265021        0.3215653803
 C         -0.5918149049       -3.9338386309       -0.6365977139
 C         -0.3644220355       -4.0705080647        0.8371754653
 H         -0.6651849479       -4.9829972921        1.3292923592
 H          0.5314498097       -3.6240747007        1.2435758900
 H         -1.0731487204       -4.7400279245       -1.1685552381
 H          0.1526881378       -3.4147589362       -1.2190804776
 H         -2.4535603537       -3.4736057087        0.4394045180
