  62
        -98.94227874
 C         -1.2005097007       -1.1907431373       -0.0437609570
 C         -1.6302690593       -0.1805635384        0.8456199244
 C         -2.7138330866        0.6990579725        0.3766134489
 C         -3.2037338655        0.5350697700       -0.8663178859
 C         -4.2566026691        1.3099894265       -1.6313155883
 C         -5.2052235998        2.2638532424       -0.9097178902
 C         -6.1922369717        1.5880896826        0.0411416108
 H         -6.7545794565        2.3684321928        0.5585888997
 H         -6.9008102672        1.0038078376       -0.5511997420
 C         -5.5725955455        0.6524266448        1.0759009838
 H         -5.1017363461       -0.1929708481        0.5701737210
 H         -6.3826983041        0.2503643179        1.6902439520
 C         -4.5548517669        1.2987833218        2.0138060575
 H         -4.3275076434        0.5745439661        2.8004448151
 H         -4.9967247649        2.1779452661        2.4865351479
 C         -3.2207631849        1.7095136423        1.3648440086
 H         -3.2863610525        2.6930952238        0.9044915647
 H         -2.4652676311        1.7719848850        2.1538233262
 H         -5.7868894499        2.7685460809       -1.6860973875
 H         -4.6412020138        3.0333218207       -0.3905417371
 H         -4.8446191137        0.5597721076       -2.1698423188
 H         -3.7086929011        1.8771471653       -2.3926031216
 O         -2.7238499148       -0.4266979854       -1.7087723137
 C         -1.7194094268       -1.3034486071       -1.3315797116
 O         -1.3894388170       -2.1164294750       -2.2159453414
 O         -1.1209577198       -0.0109385346        1.9872320556
 C         -0.0856112637       -2.1254592336        0.3829735112
 C          1.1401517435       -1.9203761444       -0.4741454593
 C          1.9850018040       -2.9543491770       -0.8589374662
 C          3.1109177821       -2.6904191153       -1.6198496702
 C          3.4352221285       -1.3974099170       -1.9890115177
 C          2.5997005792       -0.3555506727       -1.6032908857
 C          1.4630875158       -0.6269927446       -0.8597346441
 H          0.8070296038        0.1876803625       -0.5954889220
 N          2.8846849359        0.9752093143       -1.9442738923
 S          2.5263770589        2.1918865282       -0.8537178410
 O          1.1106209194        2.4649438703       -0.8473578026
 O          3.3755760348        3.2919974428       -1.2604015512
 C          3.0731881584        1.5605616084        0.7230180787
 C          2.1685653814        1.1843484468        1.6939655944
 C          2.6456935305        0.6432945718        2.8781589428
 C          4.0089299642        0.4892061185        3.0717415032
 C          4.9066296435        0.8820255684        2.0900323135
 C          4.4363583482        1.4196625687        0.9040070953
 H          5.1018520853        1.7465011682        0.1215931513
 H          5.9673142987        0.7670278369        2.2444142149
 H          4.3725565189        0.0632358672        3.9935135601
 H          1.9386130022        0.3404770934        3.6341596299
 H          1.1098442794        1.3042602387        1.5241264831
 H          3.7745740920        1.1209541047       -2.3973869871
 H          4.3169746878       -1.1941701548       -2.5768753227
 H          3.7520820286       -3.5041498683       -1.9225715921
 H          1.7571512501       -3.9673954941       -0.5706339786
 H          0.1732291115       -1.8194151220        1.4086882006
 C         -0.5684168895       -3.5609040091        0.4107907805
 C         -0.0219955847       -4.5263263920        1.4187247306
 C         -1.4224218106       -4.0122725055        1.5566937491
 H         -2.2443619991       -4.6824857726        1.3546022367
 H         -1.6300240268       -3.2904936204        2.3333085936
 H          0.1163108824       -5.5556169176        1.1238820642
 H          0.7202500782       -4.1601293714        2.1116666735
 H         -0.8187877591       -3.9330533788       -0.5761403857
