  62
        -98.93810157
 C          2.3245353225        1.3582803880       -0.0065886184
 C          2.9418915076        0.5034238880        0.9366479567
 C          3.6155074411       -0.6858354642        0.3963547646
 C          3.5929887256       -0.9034771802       -0.9312981484
 C          4.1634569749       -2.1061854585       -1.6278256246
 C          3.2074155600       -3.3067214978       -1.4752681775
 C          3.7694958929       -4.4603380959       -0.6431850842
 H          2.9395626930       -5.1341547693       -0.4192965122
 H          4.4901699246       -5.0142623395       -1.2483863229
 C          4.4620308143       -4.0686775694        0.6657372215
 H          4.5656384240       -4.9821094479        1.2551027801
 H          5.4730947120       -3.7173442868        0.4550225360
 C          3.7430464301       -3.0133994309        1.5161375182
 H          3.8426481713       -3.2969303717        2.5659708117
 H          2.6754507647       -3.0015250975        1.2913622450
 C          4.3097528485       -1.5873605606        1.3794321628
 H          4.2129372986       -1.0788462835        2.3432685085
 H          5.3752763102       -1.6389835104        1.1402478869
 H          2.9482796501       -3.6931115758       -2.4622765247
 H          2.2753887948       -2.9507209403       -1.0287473352
 H          5.1422677616       -2.3409893302       -1.2156430986
 H          4.2787962198       -1.8463335705       -2.6802158385
 O          2.9671699860       -0.0731652651       -1.8043570017
 C          2.3007193071        1.0638069080       -1.3700342828
 O          1.7511913720        1.7116783706       -2.2794597016
 O          2.9254925480        0.7228471614        2.1795533339
 C          1.5830767405        2.5858293771        0.4986484250
 C          0.1061615180        2.3550374712        0.2929705433
 C         -0.6996937346        3.1351033798       -0.5239558025
 C         -2.0328141662        2.8074097558       -0.7077953901
 C         -2.5885452560        1.7059307754       -0.0832129401
 C         -1.7914335944        0.9234996176        0.7427209336
 C         -0.4607454879        1.2558150596        0.9284495043
 H          0.1626594288        0.6401061635        1.5659312492
 N         -2.3485449457       -0.2086555627        1.3784025897
 S         -2.8443508162       -1.4392062770        0.3396624892
 O         -2.7999918461       -2.6496415843        1.1319659493
 O         -2.0691645106       -1.4427138178       -0.8809943055
 C         -4.5414274815       -1.0297783961       -0.0056665955
 C         -5.4306389013       -1.0042298312        1.0511864026
 C         -6.7546718811       -0.6796834729        0.8030711729
 C         -7.1645809234       -0.3900342942       -0.4900955187
 C         -6.2600302816       -0.4236368241       -1.5404581283
 C         -4.9334104943       -0.7463417154       -1.2990278381
 H         -4.1921657564       -0.7786293919       -2.0817322837
 H         -6.5803464640       -0.1984721922       -2.5450441689
 H         -8.1953956930       -0.1365774066       -0.6809384237
 H         -7.4611952719       -0.6527200500        1.6168613687
 H         -5.0700580068       -1.2410545339        2.0381715983
 H         -1.7352059353       -0.5995572223        2.0808178336
 H         -3.6243996669        1.4462704107       -0.2294449097
 H         -2.6466252114        3.4181342804       -1.3520734335
 H         -0.2806490160        3.9885966561       -1.0304574177
 H          1.7749130689        2.6152687262        1.5810565323
 C          2.1078949031        3.8591893847       -0.1255184090
 C          1.8753240647        5.1710134660        0.5609967209
 C          3.2491206895        4.5737699942        0.5318170448
 H          3.9993208542        5.0309536600       -0.0955887863
 H          3.6434631930        4.1496242590        1.4437761701
 H          1.6827601381        6.0430937777       -0.0449129749
 H          1.3356752878        5.1550482538        1.4957071876
 H          2.0920547679        3.8361409897       -1.2085532804
