  62
        -98.93898421
 C          2.0649437474        0.7895611884        0.5700951801
 C          2.0409543880        0.0580564206       -0.6391927048
 C          2.0762309009       -1.4098664783       -0.5214454586
 C          2.0873478267       -1.9750954827        0.6996762432
 C          2.0472983919       -3.4284955961        1.1256232827
 C          2.3395349753       -4.5445689139        0.1258931153
 C          3.7795324463       -4.5869713435       -0.3836569310
 H          3.8462342836       -5.3613428674       -1.1508265132
 H          4.4321422415       -4.8785666313        0.4429088151
 C          4.3138120261       -3.2755639701       -0.9536600599
 H          5.3410499954       -3.4490761711       -1.2852525855
 H          4.3525313813       -2.5216016415       -0.1648308290
 C          3.5315836605       -2.7120949426       -2.1386313522
 H          3.4408357555       -3.4738098746       -2.9152121353
 H          4.1112967499       -1.8815434084       -2.5496939625
 C          2.1264470775       -2.1749735517       -1.8120353443
 H          1.3830420879       -2.9689503400       -1.8113302709
 H          1.8408106255       -1.4659617900       -2.5946965121
 H          1.6418417433       -4.4942742697       -0.7048292079
 H          2.1451386713       -5.4859167787        0.6472267909
 H          1.0426002917       -3.5836208930        1.5359304455
 H          2.7412560009       -3.5108344362        1.9684899118
 O          2.0866896824       -1.2249646824        1.8425530385
 C          2.0684418235        0.1573337440        1.8099041781
 O          2.0652084156        0.7000680743        2.9354191629
 O          1.9903487627        0.6041826139       -1.7730654677
 C          1.9721243030        2.3045985709        0.5401958933
 C          0.6944128057        2.6992058382       -0.1618543468
 C          0.6186839026        3.6967927969       -1.1246088647
 C         -0.5832600410        3.9666817787       -1.7568072942
 C         -1.7231110392        3.2455659465       -1.4543592576
 C         -1.6616263069        2.2599523244       -0.4746999011
 C         -0.4651306171        2.0119869187        0.1749420208
 H         -0.4286471381        1.2427292326        0.9341264465
 N         -2.8037016653        1.5208337197       -0.1184247732
 S         -2.5967422939       -0.0849377979        0.3628274761
 O         -2.2563190631       -0.1089284738        1.7647922654
 O         -1.6937442053       -0.7736278455       -0.5313200906
 C         -4.2622898351       -0.6863871249        0.1464933256
 C         -5.2034812433       -0.3894064380        1.1143331256
 C         -6.5082232856       -0.8203638854        0.9344742298
 C         -6.8486970817       -1.5362859096       -0.2038560808
 C         -5.8930826458       -1.8284825151       -1.1653052572
 C         -4.5864138508       -1.3988858712       -0.9923518051
 H         -3.8074380377       -1.6069384293       -1.7083753632
 H         -6.1593216604       -2.3879349828       -2.0475439965
 H         -7.8646787025       -1.8709809033       -0.3411956649
 H         -7.2529762015       -0.5971235029        1.6811873809
 H         -4.8884852596        0.1614144050        1.9852336847
 H         -3.5531338901        1.6112591791       -0.7913188786
 H         -2.6524020760        3.4399583702       -1.9678165815
 H         -0.6275081173        4.7380123262       -2.5106985477
 H          1.5030739325        4.2516805271       -1.3916220930
 H          1.9019140555        2.6262641485        1.5902966703
 C          3.2161316547        2.9076444593       -0.0773814623
 C          3.6792967389        4.2717708206        0.3350789767
 C          4.4428394897        3.0579371947        0.7694252090
 H          5.4055928489        2.8633793304        0.3213685478
 H          4.3708943524        2.7471001942        1.8018649405
 H          4.1231253270        4.9132652544       -0.4111498768
 H          3.0955443698        4.7939532115        1.0780243270
 H          3.3531840238        2.6065292412       -1.1094992016
