  62
        -98.93599672
 C          1.9645334388        1.1268120495        0.3486243734
 C          2.2869465256        0.0572226547       -0.5194195620
 C          3.5519258867       -0.6558545765       -0.2464645996
 C          4.3086336819       -0.2968538109        0.8060370851
 C          5.5999352170       -0.8698947221        1.3520320374
 C          6.4439043532       -1.8310550728        0.5189313403
 C          7.0882471430       -1.2079228703       -0.7189805652
 H          7.8617411577       -0.5080765417       -0.3927042862
 H          7.5774005348       -2.0028982765       -1.2861677509
 C          6.1403621178       -0.4482313493       -1.6435730094
 H          6.7298478774       -0.0554629269       -2.4765584069
 H          5.7214552490        0.4098905470       -1.1139084622
 C          4.9987325505       -1.2750475947       -2.2317414941
 H          5.4035904457       -2.1573182105       -2.7313678118
 H          4.5035054126       -0.6605198663       -2.9884018677
 C          3.9237794354       -1.7292949487       -1.2290775105
 H          3.0143207813       -1.9593866148       -1.7919787229
 H          4.2238036885       -2.6371657722       -0.7110614752
 H          7.2502343021       -2.1801496436        1.1697942448
 H          5.8606666277       -2.7057118600        0.2460847994
 H          6.2125117894       -0.0067879577        1.6317010314
 H          5.3289023400       -1.3701841914        2.2885208730
 O          3.9369226166        0.7182828530        1.6401342043
 C          2.7870597763        1.4543789017        1.4291772739
 O          2.6079078833        2.3686593297        2.2582946509
 H         -0.2254428559       -0.5103804342       -0.1474365587
 C         -0.8289314923        0.0573471348        0.5451963213
 C         -0.4778539394        1.3689564279        0.8351346494
 C         -1.2720251361        2.0899766318        1.7187229852
 C         -2.3839177922        1.5079003508        2.3031587599
 C         -2.7286470373        0.1998867835        2.0147201300
 C         -1.9432980634       -0.5275948559        1.1290408143
 N         -2.2923940216       -1.8531607740        0.8153783430
 S         -3.8924210924       -2.1480500026        0.4183614813
 O         -4.6720108793       -2.2713375517        1.6252756502
 O         -3.8680412259       -3.3125482681       -0.4379912475
 C         -4.4148390899       -0.7054799878       -0.4920866798
 C         -3.7811195559       -0.4273439951       -1.6871387446
 C         -4.1391118924        0.7142983735       -2.3857423456
 C         -5.1174289463        1.5555004857       -1.8780829507
 C         -5.7486704687        1.2590675841       -0.6802205256
 C         -5.3945967138        0.1186306506        0.0228774369
 H         -5.8583398178       -0.1490128119        0.9582034373
 H         -6.5109869686        1.9135482446       -0.2894189490
 H         -5.3873313222        2.4469906404       -2.4215910527
 H         -3.6471979638        0.9472979417       -3.3163639754
 H         -3.0249059173       -1.1026132831       -2.0560375402
 H         -1.6658899232       -2.2866244058        0.1526807896
 H         -3.5856249908       -0.2725577162        2.4666743180
 H         -2.9881759275        2.0778924606        2.9919975741
 H         -1.0037686539        3.1084866244        1.9581818017
 C          0.7282811456        1.9974911886        0.1862743224
 H          0.9576425979        2.9198322452        0.7424798385
 C          0.4791633160        2.3978057095       -1.2631476422
 C         -0.6562080231        1.8809127200       -2.0889566072
 C         -0.6712977074        3.2978134190       -1.6058312225
 H         -0.5107522479        4.0937629454       -2.3168941132
 H         -1.3596848800        3.5435864380       -0.8114153648
 H         -1.3427432299        1.1839592635       -1.6354537516
 H         -0.4621487525        1.6855203473       -3.1325428845
 H          1.4104626003        2.5784497082       -1.7910473520
 O          1.5641743962       -0.3160786245       -1.4799623178
