  62
        -98.93695658
 C         -1.9960246753       -0.8762507777        0.4426411743
 C         -2.7127084715        0.2177159999        0.9887769847
 C         -4.1480082109        0.3246544088        0.6654552588
 C         -4.7044299938       -0.6229079483       -0.1114816013
 C         -6.1242091955       -0.7162395050       -0.6039854728
 C         -6.4200184954        0.2643496712       -1.7498614110
 C         -5.8790238541        1.6763934404       -1.5420497735
 H         -4.7973616238        1.6296970980       -1.4024284732
 H         -6.0626766248        2.2407444253       -2.4601783290
 C         -6.5072859396        2.4502407914       -0.3853843847
 H         -7.5858248007        2.5192253250       -0.5438552286
 H         -6.1018426066        3.4648898999       -0.4166177999
 C         -6.2564404852        1.8839120037        1.0140609143
 H         -6.8991753350        1.0309648987        1.2148434720
 H         -6.5365304724        2.6590312093        1.7334826827
 C         -4.8023803122        1.5256131410        1.3046084555
 H         -4.1647239062        2.3836053681        1.0617712033
 H         -4.6874680186        1.3817338259        2.3859548048
 H         -7.5003231068        0.3042904277       -1.8991650789
 H         -5.9674599131       -0.1342002332       -2.6611121529
 H         -6.8161483608       -0.5689025902        0.2198929962
 H         -6.2599706404       -1.7347043558       -0.9744593159
 O         -3.9805391951       -1.6635193798       -0.6082326182
 C         -2.6286167170       -1.8227715074       -0.3629881074
 O         -2.1395132423       -2.8283504215       -0.9138693546
 O         -2.1739319621        1.0854079129        1.7298134161
 C         -0.5216857040       -0.9674205070        0.7935927903
 C          0.3599899394       -0.4130849020       -0.3002204625
 C          0.3235949823       -0.9215435509       -1.5950983783
 C          1.1493398348       -0.4016651907       -2.5745704591
 C          2.0424586051        0.6140291279       -2.2791047154
 C          2.0926845815        1.1229841125       -0.9877558160
 C          1.2456739371        0.6148823527       -0.0114196601
 H          1.2895705130        1.0306734421        0.9838938075
 N          2.9996820597        2.1456439461       -0.6457179922
 S          4.1052954716        1.8359128264        0.5739747145
 O          3.4164767179        1.6338643025        1.8218365697
 O          5.0396692550        2.9374906186        0.5222616881
 C          4.9142747077        0.3308669892        0.0593607450
 C          4.2937964736       -0.8805649276        0.2931286528
 C          4.8903914061       -2.0385257196       -0.1803186954
 C          6.0897234085       -1.9672165456       -0.8721669628
 C          6.7020191494       -0.7431453114       -1.0951581054
 C          6.1071980438        0.4190914238       -0.6315584714
 H          6.5478694528        1.3917614711       -0.7797191321
 H          7.6363798868       -0.6909580339       -1.6304657549
 H          6.5491057347       -2.8717376649       -1.2383886698
 H          4.4116442738       -2.9892302915       -0.0089306894
 H          3.3629760734       -0.9037580769        0.8357260463
 H          3.4803622243        2.5438410820       -1.4406521137
 H          2.6918945805        1.0136476260       -3.0433482431
 H          1.1048217955       -0.7990415959       -3.5771508052
 H         -0.3630449271       -1.7214706933       -1.8252967517
 H         -0.3982703398       -0.3215088721        1.6740801219
 C         -0.0706947492       -2.3675174498        1.1637967240
 C          1.1087924703       -2.5315062370        2.0730686330
 C         -0.2697457640       -2.8538975068        2.5660889942
 H         -0.5379157630       -3.8884157493        2.7184315759
 H         -0.7307685695       -2.1756063215        3.2696412695
 H          1.7917588519       -3.3471792897        1.8919907710
 H          1.5800772089       -1.6358125352        2.4521719557
 H         -0.2001189789       -3.0862911795        0.3652817230
