  62
        -98.94322474
 C         -1.8552322914       -0.8458764894        0.6976279700
 C         -2.8181525717       -1.1920197189       -0.2823464299
 C         -4.1533744415       -0.6058423785       -0.0990967096
 C         -4.4063224711        0.1814417214        0.9608750006
 C         -5.7219165208        0.8333836517        1.2894480910
 C         -5.9581092805        2.1624768720        0.5590542413
 C         -6.2611667108        2.0390092424       -0.9348027887
 H         -7.0747894610        1.3279228426       -1.0812383787
 H         -6.6171504905        3.0151017225       -1.2704878985
 C         -5.0564571910        1.6308508622       -1.7944017290
 H         -4.1342594609        1.7938046918       -1.2312818891
 H         -5.0068959809        2.2706779723       -2.6783780388
 C         -5.0883742815        0.1829825623       -2.2839977893
 H         -4.1722260917       -0.0066223779       -2.8487735594
 H         -5.9361823817        0.0431965427       -2.9582539392
 C         -5.1785632417       -0.8604516379       -1.1628733295
 H         -6.1798931116       -0.8663145077       -0.7332923493
 H         -4.9746302521       -1.8440825979       -1.5924714197
 H         -6.8071894703        2.6526417921        1.0411464615
 H         -5.0820931803        2.7996791817        0.7021750013
 H         -6.5381129610        0.1450717520        1.0683237509
 H         -5.7122513106        1.0279969115        2.3641265410
 O         -3.4628896008        0.4665568509        1.8980307706
 C         -2.1714908310       -0.0176304295        1.7785437903
 O         -1.4074397807        0.3433960401        2.6976272802
 O         -2.6019863121       -1.9524208687       -1.2607365901
 C         -0.4152626216       -1.3352659098        0.6407175597
 C          0.3505572785       -0.5540148198       -0.4007200102
 C          0.2240001082       -0.8131142695       -1.7618755103
 C          0.9193979183       -0.0551033195       -2.6858163902
 C          1.7676842787        0.9580334301       -2.2748375001
 C          1.8988800090        1.2279631398       -0.9182480501
 C          1.1879748889        0.4759275498        0.0069236099
 H          1.2825336691        0.7115791196        1.0570239799
 N          2.7535175694        2.2522356894       -0.4682566200
 S          3.8883443994        1.8807190388        0.7052942997
 O          3.2458130496        1.6801604988        1.9782234498
 O          4.8530835398        2.9560734185        0.6353150398
 C          4.6222463889        0.3611882987        0.1284160993
 C          4.1265359786       -0.8470194812        0.5747218891
 C          4.6472778881       -2.0191055213        0.0493857388
 C          5.6491712880       -1.9625837214       -0.9069594613
 C          6.1416910183       -0.7408763115       -1.3402515711
 C          5.6207223788        0.4340154586       -0.8234120308
 H          5.9794040790        1.4044074385       -1.1264300107
 H          6.9248704782       -0.7009567016       -2.0799896613
 H          6.0493176776       -2.8775686414       -1.3141663816
 H          4.2656318679       -2.9699175312        0.3858708887
 H          3.3514005787       -0.8474213011        1.3239629593
 H          3.1874535494        2.7770437294       -1.2147066200
 H          2.3158322788        1.5444099801       -2.9967966801
 H          0.8062019481       -0.2610910293       -3.7392893002
 H         -0.4489151921       -1.5886094392       -2.0903213003
 H          0.0150435186       -1.0898586501        1.6213872097
 C         -0.3123666521       -2.8331387998        0.4343734094
 C          0.9446983778       -3.5364484603        0.8447131291
 C         -0.3155069122       -3.7329203500        1.6317411292
 H         -0.8282269825       -4.6805322199        1.5625370791
 H         -0.3880184219       -3.2690530702        2.6053405293
 H          1.3020777874       -4.3516559103        0.2349712988
 H          1.7255085380       -2.9384509406        1.2899975091
 H         -0.8273201823       -3.1872974694       -0.4480436206
