  62
        -98.94519507
 C          2.0759103883        1.4509765570       -0.0016754363
 C          1.8997069452        0.4727087406       -1.0100962064
 C          2.7791393532       -0.7034256683       -0.9238709195
 C          3.6727780535       -0.7942733491        0.0770555855
 C          4.5837108112       -1.9629202021        0.3135489514
 C          3.9326108732       -2.9974298000        1.2422505305
 C          2.5104625766       -3.3865199820        0.8375978305
 H          2.1732679576       -4.1466715669        1.5453586562
 H          1.8548969580       -2.5206291823        0.9553026016
 C          2.3831883622       -3.9253995756       -0.5940080189
 H          1.7494435575       -4.8142794838       -0.5809717161
 H          3.3624259091       -4.2339545868       -0.9619033706
 C          1.7554376423       -2.9444773921       -1.5858114591
 H          0.8200044703       -2.5559144578       -1.1758986364
 H          1.5130100024       -3.4934236524       -2.4995641528
 C          2.6324067625       -1.7531281616       -1.9896072338
 H          3.6119389131       -2.1079149936       -2.3167218475
 H          2.1480314579       -1.2561257377       -2.8351755599
 H          4.5643412612       -3.8874483511        1.2613705648
 H          3.8999254882       -2.5827275074        2.2523833557
 H          4.8331931736       -2.4219004591       -0.6411876387
 H          5.4998232767       -1.5955456106        0.7791726186
 O          3.8149283952        0.1644138279        1.0270045586
 C          3.0251138811        1.2992341408        1.0147091973
 O          3.2612804558        2.0953263416        1.9453132676
 H         -0.8542478578        1.7106779656       -1.3542268102
 C         -1.1079419304        1.8936226924       -0.3217938988
 C         -0.1472779397        2.4100210184        0.5354768357
 C         -0.4802359441        2.5962857867        1.8731019763
 C         -1.7481225207        2.2888229575        2.3333467941
 C         -2.7075931964        1.7842775013        1.4731474326
 C         -2.3776053463        1.5722211772        0.1404026672
 N         -3.3346245443        1.0595598442       -0.7540754616
 S         -4.2334465164       -0.2922827797       -0.3606566152
 O         -4.9123218958       -0.6593586981       -1.5817406533
 O         -5.0741943922        0.0100492748        0.7706857210
 C         -3.0611650815       -1.5614000329        0.0815521069
 C         -2.5723591698       -1.6165291558        1.3716116781
 C         -1.6454489818       -2.5951598949        1.6940129919
 C         -1.2322218431       -3.5014821700        0.7302612303
 C         -1.7336331720       -3.4336024965       -0.5607259855
 C         -2.6510710049       -2.4501799543       -0.8923183100
 H         -3.0692050306       -2.3652482585       -1.8824244659
 H         -1.4113651981       -4.1409617785       -1.3079250030
 H         -0.5146847231       -4.2645935723        0.9863215164
 H         -1.2507804334       -2.6479392083        2.6961706613
 H         -2.9270363847       -0.9068796491        2.1005306087
 H         -2.9880853533        0.9785103417       -1.6993147712
 H         -3.7020888707        1.5475237285        1.8154967495
 H         -1.9952494391        2.4483258485        3.3721690073
 H          0.2695903434        2.9779360217        2.5516147934
 C          1.2483495266        2.7270588874        0.0538961908
 H          1.7282628102        3.3553576816        0.8156819215
 C          1.2556364095        3.4818869043       -1.2605512266
 C          0.8351908443        4.9196474410       -1.2727405175
 C          2.2747499715        4.5574874612       -1.4790878696
 H          2.7004687168        4.6711628370       -2.4648766539
 H          2.9718378910        4.7571191482       -0.6780864093
 H          0.5551465468        5.3649591191       -0.3299043894
 H          0.2700457320        5.2854966825       -2.1162537009
 H          0.9943944656        2.8724268534       -2.1153609155
 O          1.0631322580        0.5581944634       -1.9483592685
