  62
        -98.93647627
 C          2.3555924474        1.2929159454       -0.0735614632
 C          3.1161400023        0.5496523038        0.8585743426
 C          3.9747848243       -0.5022707432        0.2983522258
 C          3.9984147259       -0.7023040427       -1.0319989606
 C          4.8552826949       -1.6910221656       -1.7778988668
 C          4.5674203789       -3.1814669603       -1.5125092075
 C          5.4420106992       -3.8104391609       -0.4207720586
 H          5.7243094267       -4.8175381402       -0.7341156900
 H          6.3663826391       -3.2376240577       -0.3380639562
 C          4.7954873672       -3.9390393513        0.9618954635
 H          4.1104849393       -4.7901233189        0.9583853370
 H          5.5864076884       -4.1574791966        1.6825869035
 C          4.0084094851       -2.7212734418        1.4465633390
 H          3.0504570778       -2.6716178686        0.9223933627
 H          3.7726643025       -2.8651828708        2.5031584276
 C          4.7302907859       -1.3722179138        1.2605599265
 H          5.7522358052       -1.5268353646        0.9179530082
 H          4.7624770106       -0.8336903689        2.2099178074
 H          3.5111869081       -3.3122866530       -1.2781769293
 H          4.7582204541       -3.7107971851       -2.4473214577
 H          4.6870375206       -1.4791377222       -2.8356705895
 H          5.9042585904       -1.4805458178       -1.5577639722
 O          3.2423810995        0.0304868947       -1.8944659520
 C          2.3922250879        1.0291948164       -1.4430063136
 O          1.7422609008        1.5949808682       -2.3409708156
 O          3.0800534038        0.7553638062        2.1029209619
 C          1.4390439947        2.3912534773        0.4318726368
 C          0.0020620275        2.0769763621        0.0925733462
 C         -0.8849144559        3.0147927434       -0.4188153464
 C         -2.1956190937        2.6634628683       -0.6937401384
 C         -2.6510059716        1.3787285069       -0.4641278407
 C         -1.7767731185        0.4356886957        0.0609438417
 C         -0.4668004015        0.7920886689        0.3396211565
 H          0.2119809657        0.0554740209        0.7536204749
 N         -2.2290013635       -0.8766363555        0.2928050033
 S         -3.6054478080       -1.0718610377        1.2383116162
 O         -3.7553690504        0.0127989203        2.1806367194
 O         -3.4926965798       -2.4006424918        1.7993345754
 C         -4.9422782295       -1.0501307789        0.0631784381
 C         -5.9571396245       -0.1221423234        0.1910610675
 C         -6.9923203066       -0.1306090715       -0.7309808589
 C         -6.9941631625       -1.0618845207       -1.7581241711
 C         -5.9684820034       -1.9888399691       -1.8708316637
 C         -4.9314404447       -1.9866635103       -0.9518228150
 H         -4.1184143917       -2.6917762705       -1.0009065797
 H         -5.9733559847       -2.7117327661       -2.6706708544
 H         -7.7998073771       -1.0660238001       -2.4751950407
 H         -7.7908050214        0.5886782101       -0.6449675441
 H         -5.9103973619        0.5858392924        1.0030799263
 H         -1.5012331173       -1.5022821598        0.6070760543
 H         -3.6681361357        1.0996291087       -0.6853831284
 H         -2.8713855606        3.4017531086       -1.0975194557
 H         -0.5494275624        4.0213123071       -0.6065826525
 H          1.5376556330        2.3717363195        1.5282079144
 C          1.9018535138        3.7416903468       -0.0730032866
 C          1.6558409444        4.9775186627        0.7383575653
 C          3.0417669608        4.4198772850        0.6240422014
 H          3.7673705008        4.9526716510        0.0280881559
 H          3.4658582531        3.9189390321        1.4822546207
 H          1.4318681122        5.8981531021        0.2209985244
 H          1.1402945940        4.8630481389        1.6800009255
 H          1.8592757315        3.8178038799       -1.1535835654
