  62
        -98.94055820
 C         -1.6687648355       -0.1884242455       -0.8072890477
 C         -2.9763163848       -0.3224039388       -1.3414263346
 C         -4.0334111620        0.4396750491       -0.6679615314
 C         -3.7284725653        1.2028813209        0.3968118046
 C         -4.6877670753        2.0600701571        1.1770802647
 C         -5.4653197353        1.2991295407        2.2596067294
 C         -6.5520103247        0.3576831975        1.7389416327
 H         -7.1565487770        0.0597489775        2.5979616847
 H         -7.2048575218        0.9006317209        1.0547151910
 C         -6.0178783609       -0.9059066881        1.0499643807
 H         -6.5646157214       -1.7785026793        1.4146560902
 H         -4.9688431203       -1.0513939484        1.3183917043
 C         -6.1424612660       -0.8984566184       -0.4737642694
 H         -7.1978192386       -0.8861934770       -0.7552371175
 H         -5.7027289552       -1.8223700303       -0.8583566801
 C         -5.4403565213        0.2808740395       -1.1597482343
 H         -5.3978036838        0.0770660114       -2.2325943830
 H         -6.0053789490        1.1991729071       -1.0003992634
 H         -5.9382719810        2.0430206169        2.9048729271
 H         -4.7551606936        0.7345416531        2.8682446957
 H         -5.3886012553        2.5411074870        0.4941575332
 H         -4.0890687384        2.8331604870        1.6634041159
 O         -2.4667121437        1.2942197904        0.8893212178
 C         -1.4103973981        0.5855401598        0.3258203430
 O         -0.3319817860        0.7431312590        0.9246873545
 O         -3.2473252440       -1.0483318750       -2.3349333402
 C         -0.5569062512       -0.9831601189       -1.4699548799
 C          0.2487831615       -1.7030631592       -0.4198962204
 C         -0.3643156318       -2.6945899785        0.3415118408
 C          0.3276664675       -3.3352665476        1.3508958169
 C          1.6405358394       -2.9958678147        1.6274031846
 C          2.2597467468       -2.0046388343        0.8747198074
 C          1.5682154684       -1.3783746992       -0.1530119996
 H          2.0661937817       -0.6201987983       -0.7319665074
 N          3.5638532198       -1.6044028786        1.1740206591
 S          4.5808248188       -0.7652100056        0.1684088942
 O          4.4079233674       -1.1590457832       -1.2116781578
 O          5.9008092152       -0.9898077869        0.7194534301
 C          4.1904475427        0.9694089861        0.3412389171
 C          3.0245254425        1.4188773825        0.9260102311
 C          2.8027444759        2.7867953203        1.0004986516
 C          3.7385760520        3.6768897426        0.5005500321
 C          4.9080692363        3.2089733558       -0.0801980781
 C          5.1352936456        1.8456179252       -0.1614247294
 H          6.0311439762        1.4386840059       -0.6028152046
 H          5.6383728894        3.9000313596       -0.4696465008
 H          3.5555901652        4.7382135850        0.5617943203
 H          1.8846834439        3.1379922080        1.4444348495
 H          2.2809933043        0.7333739767        1.2985250277
 H          4.0393837202       -2.0986782861        1.9109779836
 H          2.1772453467       -3.4830178888        2.4269954979
 H         -0.1593755527       -4.1021618593        1.9345174298
 H         -1.3963449823       -2.9474838406        0.1384054191
 H         -1.0834107990       -1.7376615755       -2.0781373073
 C          0.3041788670       -0.1755849710       -2.4294086859
 C         -0.2687914289        0.9709536863       -3.2054280045
 C          0.7466086617        1.2254723201       -2.1337190699
 H          1.7457985048        1.5156356499       -2.4268942719
 H          0.4206089169        1.6710001607       -1.2073882628
 H          0.0260365283        1.0916919558       -4.2369503996
 H         -1.2961737832        1.2414477305       -3.0091492028
 H          1.0179789301       -0.8039567996       -2.9550294813
