  62
        -98.93970330
 C          2.6338730639        1.3220985864        0.3179727514
 C          2.8716901725        0.5100724313       -0.8183005504
 C          3.8962783579       -0.5354048459       -0.6574028876
 C          4.5358631929       -0.6672408981        0.5179721021
 C          5.5516409703       -1.7261213224        0.8322758459
 C          4.8871026803       -2.9707755825        1.4371967717
 C          3.6790817273       -3.4721236869        0.6457788392
 H          3.3116254983       -4.3699804140        1.1472569689
 H          2.8826931769       -2.7259873282        0.6994638332
 C          3.9739259373       -3.7934747331       -0.8261125829
 H          5.0481893554       -3.9116054395       -0.9719355002
 H          3.5059377736       -4.7476909103       -1.0772200599
 C          3.4393731167       -2.7610113353       -1.8204729123
 H          2.3817067507       -2.5723151876       -1.6186496437
 H          3.5083050732       -3.1881683112       -2.8246206600
 C          4.1737377498       -1.4143670541       -1.8449877686
 H          5.2465979562       -1.5828261299       -1.9572923534
 H          3.8197346186       -0.8594139314       -2.7189507445
 H          4.5560949392       -2.7287291743        2.4496923452
 H          5.6348085358       -3.7630833971        1.5039846442
 H          6.2613742244       -1.3173635419        1.5533810740
 H          6.0858949326       -1.9919629395       -0.0777811460
 O          4.2874293119        0.1341652606        1.5844057018
 C          3.3360403970        1.1356970366        1.5134516914
 O          3.2104956742        1.7943401344        2.5647571196
 O          2.2698591799        0.6283106653       -1.9182559697
 C          1.6222897443        2.4575076027        0.3355032224
 C          0.2336406846        1.9553958242        0.6380482332
 C         -0.5357541274        2.5381972278        1.6378325838
 C         -1.8172365448        2.0827113267        1.8952053357
 C         -2.3553432947        1.0385277776        1.1646492494
 C         -1.5950541869        0.4493222650        0.1627291321
 C         -0.3112826197        0.9089905972       -0.0936093005
 H          0.2713748784        0.4582502656       -0.8838200731
 N         -2.1279639760       -0.6197365900       -0.5800746573
 S         -3.6331450771       -0.3977215400       -1.2932100925
 O         -3.6658862222       -1.3168852811       -2.4093162464
 O         -3.8714700239        0.9942141202       -1.5983105646
 C         -4.7799436753       -0.9555086120       -0.0505585805
 C         -5.8014098157       -0.1248973495        0.3667658636
 C         -6.6890705137       -0.5850471237        1.3271145870
 C         -6.5406858758       -1.8607998021        1.8492541793
 C         -5.5109383167       -2.6836371081        1.4173233201
 C         -4.6210088501       -2.2302841472        0.4568024235
 H         -3.8097930030       -2.8382963249        0.0923488835
 H         -5.3986500524       -3.6750573339        1.8258035094
 H         -7.2315475462       -2.2163414378        2.5973260232
 H         -7.4904070785        0.0527389370        1.6639630451
 H         -5.8736455686        0.8613392718       -0.0633370201
 H         -1.4757707830       -0.9997441851       -1.2516082435
 H         -3.3527146466        0.6801407914        1.3605108630
 H         -2.4035825619        2.5444873474        2.6747610884
 H         -0.1188722614        3.3470937083        2.2199319174
 H          1.9309005388        3.0990206658        1.1756250467
 C          1.6781922008        3.3119309489       -0.9257934248
 C          0.5763307643        3.3876927504       -1.9358671264
 C          0.8373446711        4.5499847221       -1.0284528067
 H          1.2783541932        5.4445250192       -1.4412406350
 H          0.1243055125        4.7313642091       -0.2382282763
 H          0.8576531834        3.4634311126       -2.9754329053
 H         -0.3175827267        2.8047409430       -1.7744855222
 H          2.6875319591        3.3798159206       -1.3194049989
