  62
        -98.94350963
 C         -1.7144997672       -1.3812912367        0.6340259199
 C         -2.6007891222       -1.0335151660       -0.4148404868
 C         -3.4202136543        0.1677578438       -0.1868773206
 C         -3.2604414794        0.8783545907        0.9436333471
 C         -3.9957699578        2.1441266677        1.2747145682
 C         -3.2302319329        3.3820608548        0.7877488598
 C         -2.7676662015        3.2888516016       -0.6662942459
 H         -2.2707878562        4.2299794519       -0.9117422701
 H         -2.0234990157        2.4939765319       -0.7520441280
 C         -3.8945468345        3.0353942345       -1.6772246813
 H         -4.8586148504        3.2784723394       -1.2289077625
 H         -3.7573895673        3.7033773936       -2.5302390910
 C         -3.9385141226        1.6099556385       -2.2302646483
 H         -4.6187464894        1.5981714069       -3.0861203768
 H         -2.9485148724        1.3261486681       -2.5957677987
 C         -4.4174028689        0.5305732363       -1.2515769142
 H         -4.5884696425       -0.3844275009       -1.8260808834
 H         -5.3650080696        0.8353337301       -0.8025594083
 H         -3.8727474991        4.2555761902        0.9131013694
 H         -2.3508442655        3.5119730419        1.4224950381
 H         -4.9836189688        2.1120505143        0.8190090330
 H         -4.1088736599        2.2012221429        2.3586900456
 O         -2.3653324222        0.5400521153        1.9067562370
 C         -1.5750762095       -0.5864377833        1.7755411791
 O         -0.7944168221       -0.7776447059        2.7306744156
 O         -2.7250173645       -1.6797268659       -1.4871535776
 C         -0.8045427692       -2.6001064508        0.5702622089
 C          0.4093518613       -2.2359585284       -0.2495437103
 C          0.4109862992       -2.2743170128       -1.6390749315
 C          1.5318025004       -1.8768188369       -2.3467315679
 C          2.6681124606       -1.4362451503       -1.6905911369
 C          2.6701208607       -1.3811408925       -0.3028028237
 C          1.5460875393       -1.7812472217        0.4058756153
 H          1.5417050170       -1.7224682555        1.4864162416
 N          3.8187362152       -0.9343721397        0.3817409911
 S          4.4290662227        0.5767398367        0.0047716252
 O          4.9529147543        0.5538371081       -1.3369456378
 O          5.3727104056        0.8782888651        1.0561512047
 C          3.0342040829        1.6830868701        0.0979792521
 C          2.2657466053        1.9066988691       -1.0267281206
 C          1.1596052740        2.7350629419       -0.9254012002
 C          0.8437706452        3.3213690087        0.2903671669
 C          1.6227874175        3.0826987277        1.4117981844
 C          2.7265669983        2.2512574406        1.3180271110
 H          3.3629444794        2.0469181109        2.1642240142
 H          1.3717013252        3.5376525556        2.3566107841
 H         -0.0146526093        3.9701318296        0.3637091988
 H          0.5481725039        2.9211790456       -1.7940576949
 H          2.5483933227        1.4416503968       -1.9567677655
 H          3.7392336599       -1.0236990382        1.3849756648
 H          3.5471592013       -1.1234290342       -2.2306346835
 H          1.5221133016       -1.9121717453       -3.4256988515
 H         -0.4785320781       -2.5905023885       -2.1598321747
 H         -0.4681904405       -2.7721624902        1.6015930546
 C         -1.4987215917       -3.8536542011        0.0815629619
 C         -0.8391377523       -5.1782961356        0.3158126494
 C         -2.0719057936       -4.8083384592        1.0833730515
 H         -2.9985290804       -5.3088922312        0.8456027446
 H         -1.9666222218       -4.5618665983        2.1301913366
 H         -0.9166018203       -5.9353506322       -0.4492203223
 H          0.1039149472       -5.1806829832        0.8418584301
 H         -2.0483781176       -3.7193385479       -0.8397506084
