  62
        -98.94465146
 C         -1.6907206038       -1.4227260063        0.1368549981
 C         -1.6282642719       -0.3258157127       -0.7571959960
 C         -2.9235741038        0.2356471308       -1.1717481110
 C         -4.0620469103       -0.3101536716       -0.7077555745
 C         -5.4423493390        0.1998634924       -1.0021600033
 C         -5.8941252313        1.2159646488        0.0561111287
 C         -4.8640083961        2.3087596051        0.3430180582
 H         -5.3027138586        2.9838686502        1.0810371427
 H         -3.9820361289        1.8587427160        0.8054229053
 C         -4.4319117417        3.1133804796       -0.8908392788
 H         -5.1597530823        2.9818803200       -1.6924587016
 H         -4.4227285806        4.1742302907       -0.6316974432
 C         -3.0355829644        2.7721324435       -1.4150786534
 H         -2.7488982079        3.5383222374       -2.1407674936
 H         -2.3118712839        2.8158551459       -0.5961759268
 C         -2.8973416499        1.4106857207       -2.1080888900
 H         -3.6654540677        1.3096945195       -2.8776396782
 H         -1.9172229546        1.3868184224       -2.5933774083
 H         -6.8269432308        1.6727973347       -0.2792197495
 H         -6.0929115682        0.6808662348        0.9875125348
 H         -5.4525534433        0.6583331626       -1.9889331330
 H         -6.1306125226       -0.6469665807       -0.9968102564
 O         -4.0819114416       -1.3734155442        0.1356088203
 C         -2.9046016243       -1.9392988064        0.5941891267
 O         -3.0671477754       -2.8864786490        1.3899375662
 O         -0.5558559383        0.1607677374       -1.1999898421
 C         -0.4220489519       -2.0605142810        0.6818298860
 C          0.2440473896       -1.0708614244        1.6078139139
 C         -0.3898787633       -0.7433910094        2.8045840920
 C          0.1720485470        0.1725613517        3.6720599870
 C          1.3676336219        0.7961022561        3.3551790207
 C          2.0032885619        0.4836939800        2.1612604159
 C          1.4480900950       -0.4579472618        1.3043414241
 H          1.9603540690       -0.7001986861        0.3907694019
 N          3.2242170566        1.0857843850        1.8039343727
 S          3.2947438416        1.8820842883        0.3201715007
 O          4.4433580678        2.7570510998        0.4451502855
 O          2.0413725938        2.5310237479        0.0163277388
 C          3.6759369069        0.6089842194       -0.8622705285
 C          4.9166327611        0.0075170110       -0.7785574139
 C          5.2395783258       -0.9891832394       -1.6848538474
 C          4.3219461996       -1.3614603167       -2.6561154281
 C          3.0830780017       -0.7431857280       -2.7284071324
 C          2.7505630149        0.2540517566       -1.8238663478
 H          1.7828116236        0.7319434693       -1.8284490859
 H          2.3660731376       -1.0357235807       -3.4794235962
 H          4.5712739562       -2.1393386033       -3.3608476331
 H          6.2013469384       -1.4733313948       -1.6315484278
 H          5.6007771460        0.3339565027       -0.0131447476
 H          3.6098371673        1.6812117468        2.5242136265
 H          1.8027646672        1.5213266587        4.0267956669
 H         -0.3267570177        0.4116260896        4.5995389723
 H         -1.3311909698       -1.2206295198        3.0423877420
 H         -0.7533855938       -2.9155927119        1.2876194826
 C          0.4754615394       -2.5630163393       -0.4284338257
 C          1.5717703890       -3.5342447064       -0.1122348823
 C          0.3650799062       -3.9878612713       -0.8762898431
 H          0.4708140915       -4.2059650409       -1.9281954036
 H         -0.3545546182       -4.6160059775       -0.3714039707
 H          2.5094872900       -3.4390898564       -0.6384636374
 H          1.6716216637       -3.8556328130        0.9134426074
 H          0.6647569315       -1.8176516916       -1.1903495982
