  62
        -98.93687681
 C          2.3354592470        1.0658368287        0.3539928856
 C          2.5409213844       -0.0197223254       -0.5271756732
 C          3.5429290892       -1.0300368087       -0.1244232806
 C          4.1852861225       -0.8843568912        1.0486524427
 C          5.2549393378       -1.7588715229        1.6464097303
 C          6.6262355911       -1.5555149934        0.9818351017
 C          6.5959604406       -1.4724954747       -0.5420304092
 H          5.9373773028       -0.6559508615       -0.8436659323
 H          7.6035640254       -1.2177806624       -0.8810813934
 C          6.1739547242       -2.7550010202       -1.2548865737
 H          6.8601193235       -3.5595807152       -0.9810955685
 H          6.2802572431       -2.5795332995       -2.3285476247
 C          4.7426499761       -3.2268499193       -0.9911133111
 H          4.5104115654       -3.9926102154       -1.7372319918
 H          4.6605702876       -3.7083553913       -0.0205402753
 C          3.6775150975       -2.1442920313       -1.1351479429
 H          3.7939949848       -1.6559755862       -2.1094678532
 H          2.6936652027       -2.6279941760       -1.1725979078
 H          7.2839011037       -2.3693533355        1.2915833592
 H          7.0473161917       -0.6196470200        1.3570995796
 H          5.3344052612       -1.4792044464        2.6992150962
 H          4.9532671753       -2.8011026107        1.6031758961
 O          3.9501713482        0.1751952663        1.8733098566
 C          3.0431938751        1.1626597580        1.5568338600
 O          2.9539743853        2.0688501762        2.4092880348
 H         -0.1255329835        0.2531913900       -1.0739118500
 C         -0.6808259397        0.7767091838       -0.3096578793
 C         -0.0634916521        1.8001989826        0.3948637061
 C         -0.7891980662        2.4602378883        1.3796114026
 C         -2.0972496948        2.0993125570        1.6510041198
 C         -2.7057287669        1.0716905631        0.9526457442
 C         -1.9892096096        0.4053175995       -0.0327883212
 N         -2.5809879615       -0.6613247014       -0.7294827085
 S         -4.1244692014       -0.4680060641       -1.3545991155
 O         -4.2222262393       -1.4305339329       -2.4299973457
 O         -4.3905127204        0.9093489729       -1.7003049404
 C         -5.1911419835       -0.9795139030       -0.0233075421
 C         -4.9851977699       -2.2266177469        0.5332644658
 C         -5.8118216117       -2.6442066826        1.5639794496
 C         -6.8267991648       -1.8139382957        2.0160740633
 C         -7.0236132985       -0.5665983257        1.4438244178
 C         -6.1994622343       -0.1425706688        0.4128962978
 H         -6.3113572678        0.8210666781       -0.0581438725
 H         -7.8136744717        0.0768917144        1.7961350559
 H         -7.4683835582       -2.1415936573        2.8187710157
 H         -5.6617129709       -3.6136169794        2.0113404595
 H         -4.1874046146       -2.8420065632        0.1518849944
 H         -1.9647305251       -1.0886926397       -1.4059532669
 H         -3.7232925616        0.7852882285        1.1623637042
 H         -2.6488805580        2.6209312929        2.4181947248
 H         -0.3165932014        3.2535652019        1.9403987673
 C          1.3594752797        2.2011989694        0.0845203588
 H          1.6401444463        2.9984593725        0.7857435176
 C          1.4655676608        2.7502449772       -1.3258751388
 C          0.9927298014        4.1447522897       -1.5995070346
 C          2.4586175218        3.8325178585       -1.6182132510
 H          2.9733609515        3.8170508238       -2.5671934330
 H          3.0660942503        4.1873286717       -0.7980674373
 H          0.6068974179        4.7144707817       -0.7676709691
 H          0.4959871506        4.3451894069       -2.5365171980
 H          1.3044275843        2.0039386233       -2.0926265018
 O          1.9316768303       -0.1733252885       -1.6218635856
