  62
        -98.94306209
 C          2.6862731192        1.2031074286        0.1158000245
 C          2.6945396743        0.1876709909       -0.8705488830
 C          3.8912677367       -0.6625622025       -0.8940123114
 C          4.9006131665       -0.4228871147       -0.0372312144
 C          6.1936445875       -1.1882018247        0.0434686935
 C          6.1098067104       -2.4665249479        0.8889494347
 C          5.3327550224       -3.6188817578        0.2510664643
 H          5.7171983216       -3.8029776545       -0.7525817647
 H          5.5370584882       -4.5108019705        0.8467551977
 C          3.8140326457       -3.4025838784        0.1913799580
 H          3.5319742015       -2.6032461834        0.8806077494
 H          3.3035380430       -4.3079364086        0.5272331403
 C          3.2745659741       -3.0683141503       -1.1994559750
 H          2.1986199117       -2.8941538845       -1.1164359267
 H          3.4287920025       -3.9193752770       -1.8664779745
 C          3.9064726310       -1.8252660094       -1.8395518037
 H          4.9243065092       -2.0429501873       -2.1622976713
 H          3.3115883555       -1.5497783017       -2.7137312723
 H          5.6645955666       -2.2174844897        1.8550499734
 H          7.1327766947       -2.8034354252        1.0719227424
 H          6.9230342088       -0.5183552373        0.5040065114
 H          6.5360272987       -1.4366331843       -0.9614195235
 O          4.8668121109        0.5880001845        0.8724508960
 C          3.7537469315        1.4048261665        0.9896667047
 O          3.8353748285        2.2610755828        1.8942951056
 O          1.7567628310        0.0008152235       -1.6881474731
 C          1.4791091928        2.1133379448        0.2475863195
 C          0.2347326082        1.2880641424        0.4708704235
 C          0.2491782345        0.3054982080        1.4577754998
 C         -0.8657991652       -0.4731766033        1.6973378443
 C         -2.0240226814       -0.2888842762        0.9618356021
 C         -2.0572412382        0.6997667890       -0.0105576090
 C         -0.9336606637        1.4839705762       -0.2471225234
 H         -0.9761787941        2.2460552857       -1.0097116251
 N         -3.2238077255        0.8912056939       -0.7658559503
 S         -4.7142280296        0.9089317576       -0.0008963586
 O         -5.5782640120        1.6608781951       -0.8844254134
 O         -4.6083112908        1.3917532645        1.3563467854
 C         -5.2229384527       -0.7973887399       -0.0068841320
 C         -5.5916496109       -1.4103497840        1.1744675256
 C         -5.9935517319       -2.7367305060        1.1446294760
 C         -6.0207718226       -3.4224636437       -0.0599535599
 C         -5.6506680746       -2.7913331557       -1.2383060860
 C         -5.2486328774       -1.4655223728       -1.2152715401
 H         -4.9559306944       -0.9400172517       -2.1089229022
 H         -5.6728705601       -3.3279772189       -2.1731460268
 H         -6.3323755248       -4.4548707786       -0.0807150558
 H         -6.2822609739       -3.2289794900        2.0594448985
 H         -5.5502291589       -0.8396393749        2.0886988582
 H         -3.1541256207        1.6215137946       -1.4590582005
 H         -2.8952325674       -0.8972918753        1.1404718267
 H         -0.8340472043       -1.2354140392        2.4612969883
 H          1.1541569609        0.1585219202        2.0323970852
 H          1.6501944507        2.7208459742        1.1486120222
 C          1.3954523844        3.0355751303       -0.9511150784
 C          0.7605418505        4.3871002306       -0.8239363790
 C          2.2468675191        4.2678170261       -0.9740024463
 H          2.6976983971        4.5665282206       -1.9084517316
 H          2.8677639798        4.4560681946       -0.1101006557
 H          0.1929241108        4.7732378397       -1.6576188842
 H          0.3694289184        4.6678319008        0.1425885263
 H          1.2734606790        2.4956561380       -1.8833822482
