  62
        -98.93799625
 C         -1.6939346964       -1.0414647634        0.0106347093
 C         -2.9149755435       -0.9884227682        0.7333251976
 C         -4.0858458016       -0.4381094266        0.0327274583
 C         -3.9542712741       -0.0266478934       -1.2395356164
 C         -5.0091496071        0.5204325390       -2.1682365719
 C         -6.0136221175        1.5241023364       -1.5871075730
 C         -5.4494474678        2.4496698729       -0.4992261354
 H         -4.3616035043        2.3674595552       -0.4635653201
 H         -5.6887683167        3.4839217116       -0.7537950565
 C         -6.0277250127        2.1619061254        0.8883866370
 H         -5.8874387806        3.0447520651        1.5168145417
 H         -7.1031785279        1.9973092845        0.7921767956
 C         -5.4041045423        0.9779453365        1.6265923105
 H         -5.9769953938        0.8141773941        2.5424942058
 H         -4.3827961432        1.2262228880        1.9285943872
 C         -5.3495310414       -0.3406634843        0.8378119574
 H         -5.3112802864       -1.1613497417        1.5592414710
 H         -6.2334198540       -0.4654302590        0.2169861648
 H         -6.8738814589        0.9894631966       -1.1869131302
 H         -6.3783274080        2.1242177333       -2.4225533830
 H         -5.5556479043       -0.3250390296       -2.5964185714
 H         -4.4536651575        0.9895728767       -2.9840584494
 O         -2.7649001391       -0.0932305392       -1.8979396576
 C         -1.6126223335       -0.5844073330       -1.3034634483
 O         -0.6175220051       -0.5441544502       -2.0562303748
 O         -3.0253523930       -1.4034249631        1.9174391330
 C         -0.5009374212       -1.6321934890        0.7419658185
 C          0.4219441037       -0.5727271659        1.2937663907
 C          0.7781388572       -0.5590855989        2.6370728174
 C          1.6638621114        0.3870078957        3.1245333787
 C          2.2091711351        1.3414969887        2.2841532137
 C          1.8506486380        1.3405429200        0.9431538556
 C          0.9720693696        0.3857420164        0.4547275789
 H          0.7118635104        0.3849245181       -0.5934348505
 N          2.4170513997        2.3000575235        0.0694436740
 S          4.0473100420        2.0495783165       -0.2392660771
 O          4.7934993632        2.3381695547        0.9589054789
 O          4.3621476725        2.8530302496       -1.3984930077
 C          4.1557438452        0.3131655809       -0.6287638935
 C          4.3992282135       -0.5928552930        0.3836605178
 C          4.3876116038       -1.9456573525        0.0859144157
 C          4.1300035832       -2.3654620335       -1.2099018442
 C          3.8842759865       -1.4428802980       -2.2149022983
 C          3.8905618170       -0.0890282977       -1.9222295210
 H          3.7040220334        0.6597187097       -2.6757992372
 H          3.6786298459       -1.7724533529       -3.2208157563
 H          4.1213570661       -3.4191178386       -1.4418943973
 H          4.5733462417       -2.6660913564        0.8660417273
 H          4.5962536834       -0.2246963422        1.3770296622
 H          1.9279069488        2.3438430425       -0.8146632801
 H          2.9130230194        2.0765178309        2.6395564594
 H          1.9320617620        0.3823564350        4.1699515061
 H          0.3498926976       -1.2929015247        3.3037639223
 H         -0.9325009067       -2.1768832686        1.5923888070
 C          0.2962360107       -2.6107742576       -0.1004653383
 C          1.0569115267       -3.7059335082        0.5815210863
 C         -0.1722573843       -4.0290654868       -0.2126591554
 H         -0.0616128267       -4.5331290532       -1.1607720921
 H         -1.0706092886       -4.3012941835        0.3223577018
 H          2.0164866452       -3.9898632148        0.1802272691
 H          0.9926224226       -3.7651883050        1.6571706105
 H          0.7378261637       -2.1594539840       -0.9797144498
