  62
        -98.93821053
 C         -2.5183580105       -1.2693892599       -0.0184876897
 C         -2.2926677505        0.1271763102        0.0803177198
 C         -3.4114649407        0.9164968503        0.6186212392
 C         -4.5402422407        0.3063347805        1.0189822092
 C         -5.7566014009        0.9762836507        1.5978633286
 C         -6.7208323207        1.5365279402        0.5431667482
 C         -6.2353016205        2.7925199099       -0.1817028622
 H         -7.0900464904        3.1980413197       -0.7266085726
 H         -5.9324275407        3.5401820202        0.5520150176
 C         -5.0892167203        2.5496204696       -1.1737091918
 H         -5.0279067802        1.4839120195       -1.4062164714
 H         -5.3016898201        3.0692655192       -2.1107077221
 C         -3.7205661404        3.0301844798       -0.6906106117
 H         -3.7311313505        4.1167680798       -0.5795324422
 H         -2.9781474302        2.7792342195       -1.4529580414
 C         -3.2654202707        2.4083312403        0.6362811786
 H         -3.8284917809        2.8365494407        1.4653828683
 H         -2.2057541207        2.6371094504        0.7781199088
 H         -7.6565414508        1.7768768304        1.0530032379
 H         -6.9325897505        0.7529510099       -0.1879958515
 H         -6.2839034910        0.2153430909        2.1772413688
 H         -5.4484170811        1.7753535710        2.2727279284
 O         -4.6981131407       -1.0423766396        0.9573186797
 C         -3.7050772305       -1.8542222597        0.4355751903
 O         -3.9912039105       -3.0681108198        0.4359766007
 O         -1.2296532905        0.7076053400       -0.2615540502
 C         -1.4697787203       -2.2297091201       -0.5579648190
 C         -0.1444025405       -1.9468616598        0.1026695611
 C          0.0633910592       -2.3677391492        1.4124756014
 C          1.2425942391       -2.0689035789        2.0676659515
 C          2.2353737992       -1.3413976392        1.4342056315
 C          2.0321475495       -0.9036653497        0.1329360512
 C          0.8538515197       -1.2259479200       -0.5302766789
 H          0.6962555099       -0.8675211004       -1.5358516791
 N          3.0244193996       -0.1665969800       -0.5381528988
 S          3.7880252894        1.1662958004        0.1485160508
 O          3.4306387991        1.3117806509        1.5377691007
 O          3.5401447196        2.3026772800       -0.7124679397
 C          5.5101345795        0.7137402303        0.0152503114
 C          5.9676816094       -0.3862564694        0.7139570719
 C          7.3019324994       -0.7438838294        0.6075728624
 C          8.1554697296        0.0000609603       -0.1933415177
 C          7.6825925897        1.1005280700       -0.8908148883
 C          6.3480754296        1.4616189100       -0.7881227287
 H          5.9373731797        2.3091553698       -1.3123613192
 H          8.3464947898        1.6780213998       -1.5138962483
 H          9.1938515296       -0.2803346897       -0.2738682873
 H          7.6705996293       -1.6009559891        1.1480194428
 H          5.2783376292       -0.9438717391        1.3259895420
 H          2.7476555198        0.0770673597       -1.4786912490
 H          3.1369560691       -1.0745186489        1.9595073416
 H          1.3909008389       -2.3996251785        3.0847937717
 H         -0.7198619709       -2.9189479691        1.9154182314
 H         -1.8054517603       -3.2272372900       -0.2325711787
 C         -1.3823804099       -2.2759637907       -2.0765017590
 C         -2.6306000198       -2.2400620711       -2.9057197693
 C         -1.6679010198       -1.0935580711       -2.9505758196
 H         -1.0707860996       -0.9624243514       -3.8416476595
 H         -1.9458297499       -0.1663163209       -2.4748709500
 H         -2.6999408895       -2.8910080314       -3.7640448891
 H         -3.5670060299       -2.1024690809       -2.3844014096
 H         -0.5995984998       -2.9496117108       -2.4121283285
