  62
        -98.94429769
 C         -0.9260318483       -1.7640143568       -0.5186524639
 C         -2.0603816639       -1.8835606544        0.3277633784
 C         -3.1442699664       -0.9220427796        0.1090029403
 C         -3.0327849993       -0.0094864913       -0.8727282887
 C         -4.0633075011        1.0220878919       -1.2435464378
 C         -4.0031640122        2.2947842567       -0.3885769489
 C         -4.5105646307        2.1414278894        1.0453965537
 H         -4.6195004168        3.1468123424        1.4563970039
 H         -5.5010306984        1.6853911551        1.0353232233
 C         -3.5782979448        1.3338159041        1.9592782694
 H         -2.5871136557        1.2679459930        1.5039105354
 H         -3.4582302547        1.8556104511        2.9111713123
 C         -4.0712087986       -0.0780725774        2.2771813904
 H         -4.9978498640       -0.0226008118        2.8530063854
 H         -3.3186340183       -0.5728610556        2.8966075573
 C         -4.3170074203       -0.9542867035        1.0417344327
 H         -5.2225385020       -0.6340592363        0.5266410269
 H         -4.4493255652       -1.9869295588        1.3738976640
 H         -4.6108525319        3.0524206488       -0.8884331590
 H         -2.9703882924        2.6468141354       -0.3684050037
 H         -3.8709059404        1.2944143688       -2.2834239982
 H         -5.0592759134        0.5826498628       -1.1798483037
 O         -1.9426995103        0.0613806444       -1.6784643911
 C         -0.8570780626       -0.7924340777       -1.5168687076
 O          0.0644563152       -0.5693380407       -2.3260731456
 O         -2.1630708937       -2.7673928520        1.2204464312
 C          0.2018529562       -2.7449086974       -0.2604425240
 C          1.2127723629       -2.1939545596        0.7189950142
 C          1.6419185940       -2.9685578177        1.7901243950
 C          2.5907196944       -2.4845621053        2.6723116139
 C          3.1311294973       -1.2249012615        2.4962393259
 C          2.7040327308       -0.4365796459        1.4313721660
 C          1.7440466812       -0.9216549429        0.5542977338
 H          1.4258804118       -0.3126921141       -0.2771792907
 N          3.2188300949        0.8536042523        1.2726308149
 S          3.3040835562        1.6531992846       -0.1912837145
 O          3.5254539932        0.7484945633       -1.2924264964
 O          4.3349298529        2.6485358014        0.0269405891
 C          1.7458058624        2.5004975618       -0.3237981360
 C          1.4191032361        3.3819264428        0.6894445372
 C          0.2468077151        4.1117556515        0.5921524616
 C         -0.5742338489        3.9521068051       -0.5147436355
 C         -0.2370994352        3.0570216550       -1.5176451496
 C          0.9369203181        2.3239182550       -1.4266019489
 H          1.2167870768        1.6068132506       -2.1828543874
 H         -0.8801701987        2.9157737940       -2.3720818793
 H         -1.4792381058        4.5340126052       -0.5979686590
 H         -0.0232371467        4.8041245555        1.3731760193
 H          2.0919023103        3.4882252189        1.5240691653
 H          3.9823259076        1.0943874569        1.8864984606
 H          3.8763041887       -0.8460150904        3.1788756684
 H          2.9162711111       -3.0944232403        3.5011618315
 H          1.2187953666       -3.9514327938        1.9342018282
 H         -0.2761158570       -3.6143052779        0.2131591361
 C          0.9200142431       -3.2189022543       -1.5088795606
 C          1.5442386068       -4.5808454139       -1.5205100370
 C          0.3151379427       -4.3120533546       -2.3350772677
 H          0.4041587042       -4.2529628480       -3.4092676572
 H         -0.6216811671       -4.7311817860       -1.9972411797
 H          2.4845934966       -4.7090950071       -2.0343322861
 H          1.4399573661       -5.1904510440       -0.6358076688
 H          1.4370391116       -2.4254362859       -2.0337292039
