  62
        -98.94044384
 C         -1.7994985825       -0.7697753899       -0.4027516677
 C         -3.1119743636       -1.2863915766       -0.5500259615
 C         -4.1393925078       -0.7141968832        0.3295407823
 C         -3.7838966890        0.2156506609        1.2345300393
 C         -4.7346960154        0.9240964298        2.1542415988
 C         -5.2670927457        2.2157175318        1.5175646018
 C         -5.7915906970        2.0336051124        0.0931843585
 H         -6.1674052274        3.0029107969       -0.2414128013
 H         -4.9592793801        1.7685178065       -0.5628678129
 C         -6.8995453356        0.9802936002       -0.0460148365
 H         -7.3374072871        0.7714498426        0.9308140370
 H         -7.6931525909        1.3871960166       -0.6762457608
 C         -6.4486396882       -0.3323829109       -0.6893689294
 H         -5.9284676438       -0.1217058625       -1.6273515005
 H         -7.3405164978       -0.9151064455       -0.9347782559
 C         -5.5453009137       -1.2214423222        0.1743542714
 H         -6.0085190566       -1.3773125319        1.1509759085
 H         -5.4598086861       -2.1917697743       -0.3238974661
 H         -6.0630161081        2.6097929553        2.1520977398
 H         -4.4578695913        2.9491746993        1.4932941863
 H         -5.5614209513        0.2586544827        2.3959073177
 H         -4.2021742791        1.1748178977        3.0732767954
 O         -2.5075912862        0.6483706464        1.3844943552
 C         -1.4805582057        0.1712347712        0.5775737158
 O         -0.3669900864        0.6559722970        0.8438786983
 O         -3.4067613872       -2.1916703486       -1.3758547200
 C         -0.7215437340       -1.3362285233       -1.3084166020
 C          0.4954881445       -1.7327971778       -0.5094987128
 C          0.3221495048       -2.5049518981        0.6369892041
 C          1.4012740173       -2.8802867233        1.4125430053
 C          2.6869142210       -2.5147709702        1.0515134790
 C          2.8741119563       -1.7627866628       -0.0984139851
 C          1.7851117415       -1.3752579565       -0.8711727753
 H          1.9550259155       -0.7736385476       -1.7504505109
 N          4.1873771991       -1.4082293206       -0.4777698727
 S          5.0070381652       -0.3032106696        0.4774382075
 O          6.3461514039       -0.2363323685       -0.0630310352
 O          4.8913232849       -0.7012749795        1.8562217433
 C          4.1773930233        1.2508270816        0.1949628864
 C          4.7949230481        2.2108699722       -0.5835525843
 C          4.1226434403        3.3923604539       -0.8498068867
 C          2.8444797069        3.5875056319       -0.3472001216
 C          2.2376419674        2.6121655280        0.4285105559
 C          2.9079990382        1.4314409909        0.7059642986
 H          2.4426348755        0.6613651975        1.2996118811
 H          1.2371251508        2.7384088891        0.8103726048
 H          2.3163385619        4.5033321494       -0.5621790714
 H          4.5925154576        4.1538801412       -1.4514797598
 H          5.7868097641        2.0133456590       -0.9571396734
 H          4.2593903297       -1.1187296111       -1.4437425715
 H          3.5396828823       -2.7852280678        1.6520778586
 H          1.2431886284       -3.4669222012        2.3052480726
 H         -0.6798340819       -2.7966368885        0.9225556885
 H         -1.1700191460       -2.2611062547       -1.7098869703
 C         -0.3962986562       -0.4578330378       -2.5094675984
 C         -1.3219913056        0.6339333920       -2.9541315401
 C          0.0063501724        0.9780379893       -2.3540373446
 H          0.7752071135        1.3716928970       -3.0032185608
 H          0.0313371451        1.3781900942       -1.3530483993
 H         -1.4664840253        0.7819004589       -4.0139648739
 H         -2.2096736819        0.8115683574       -2.3643740076
 H          0.0914213980       -1.0162250999       -3.3028815237
