  62
        -98.94413912
 C         -1.7153054237       -1.4515931771        0.2067444510
 C         -2.0110293725       -0.6931632569       -0.9519448573
 C         -2.9001949254        0.4640920230       -0.7588926642
 C         -3.3304578965        0.7750894154        0.4766760945
 C         -4.2008001086        1.9493279797        0.8166285032
 C         -3.3725663213        3.1992857289        1.1455464464
 C         -2.2996603663        3.5271727225        0.1073007273
 H         -1.8089005397        4.4494944470        0.4251155736
 H         -1.5390452692        2.7446132619        0.1141978006
 C         -2.8261090380        3.6937829156       -1.3242053122
 H         -3.9030439095        3.8654008440       -1.3095896556
 H         -2.3626087120        4.5774862096       -1.7678363465
 C         -2.5128086672        2.5156865447       -2.2483991171
 H         -1.4453023887        2.2839218453       -2.1953186050
 H         -2.7249288128        2.8240192624       -3.2758661382
 C         -3.3086008800        1.2304315091       -1.9864966644
 H         -4.3749376926        1.4641022310       -1.9512788574
 H         -3.1342860360        0.5573089477       -2.8312381899
 H         -4.0550447285        4.0454144199        1.2429731282
 H         -2.8817214488        3.0486891319        2.1097377135
 H         -4.8645944526        2.1536134353       -0.0215679460
 H         -4.8030918976        1.6859319814        1.6878195384
 O         -2.9845453444        0.0572860594        1.5747528755
 C         -2.1963193672       -1.0762897224        1.4668382621
 O         -1.9939032081       -1.6586927644        2.5488091266
 O         -1.5727606502       -0.9452922966       -2.1078375982
 C         -0.8579788393       -2.7112058046        0.1979485442
 C          0.6065117120       -2.3456783010        0.2153803933
 C          1.4344171654       -2.7111915802        1.2698989971
 C          2.7593304110       -2.3094994535        1.2987714046
 C          3.2761863101       -1.5110432448        0.2939127113
 C          2.4509936975       -1.1335860562       -0.7572537244
 C          1.1377012872       -1.5726703977       -0.8065256194
 H          0.5041123830       -1.2748405665       -1.6289987333
 N          2.9330002053       -0.2289717175       -1.7265631944
 S          3.4742146836        1.2267920605       -1.0848393451
 O          3.0792503459        2.2481905958       -2.0297644919
 O          4.8900573169        1.1295421130       -0.8290284811
 C          2.6124220994        1.4181068995        0.4707292261
 C          3.3470984859        1.5411039106        1.6323727845
 C          2.6816920702        1.6244647005        2.8448050437
 C          1.2977040704        1.5644744965        2.8762100165
 C          0.5729410178        1.4433949359        1.7008777848
 C          1.2314729837        1.3786060278        0.4841236144
 H          0.6849297529        1.2858373788       -0.4422271354
 H         -0.5036137143        1.3788084125        1.7331024445
 H          0.7739883417        1.6052043414        3.8181531893
 H          3.2422306539        1.7223893543        3.7603345343
 H          4.4224728971        1.5598434612        1.5623672301
 H          2.2583227849       -0.0512256509       -2.4583288921
 H          4.2944820959       -1.1567127004        0.3153491549
 H          3.3911778569       -2.6046489816        2.1221059369
 H          1.0273342437       -3.2958390331        2.0814650390
 H         -1.0851462177       -3.2303851376        1.1381843050
 C         -1.1758794244       -3.6451138782       -0.9533457478
 C         -0.8140178006       -5.0934444512       -0.8316887020
 C         -2.2520957783       -4.6733758583       -0.7876523717
 H         -2.8841790925       -4.8978807415       -1.6336872752
 H         -2.7658197081       -4.7112059909        0.1621300303
 H         -0.4551866150       -5.6095613113       -1.7088814047
 H         -0.3535850219       -5.4189730161        0.0887928007
 H         -1.0787072507       -3.1819749433       -1.9261860332
