  62
        -98.94473417
 C         -1.6910737595       -1.0640271369       -0.6135785122
 C         -1.6375486414        0.1394432547        0.1316742679
 C         -2.8844542027        0.5292216857        0.8086208621
 C         -3.9683557080       -0.2609360449        0.7095033033
 C         -5.3131328401        0.0468221764        1.3002686061
 C         -6.1927636847        0.8204119561        0.3078518813
 C         -5.4961746841        2.0224213420       -0.3299456457
 H         -4.6781127668        1.6665799635       -0.9601099509
 H         -6.2215793533        2.5068430952       -0.9870538573
 C         -4.9516148663        3.0481833930        0.6740055359
 H         -5.2145488124        4.0503209852        0.3288519992
 H         -5.4271311475        2.9053137256        1.6450238652
 C         -3.4316795167        3.0212810084        0.8466528742
 H         -3.1359261783        3.9149165304        1.4028052529
 H         -2.9509596558        3.0714509196       -0.1333828728
 C         -2.8687014839        1.8080982051        1.5980195484
 H         -1.8164308122        2.0098038205        1.8215895263
 H         -3.3985820425        1.6831442344        2.5448012814
 H         -6.4964299765        0.1382012712       -0.4894806104
 H         -7.0911716811        1.1531943314        0.8307919530
 H         -5.8034721418       -0.8959709627        1.5487385370
 H         -5.1793169644        0.6258985265        2.2120303827
 O         -3.9732411919       -1.4234549788        0.0087562152
 C         -2.8418733250       -1.8536075871       -0.6633803985
 O         -2.9842319569       -2.9389041306       -1.2623165035
 H          1.9269504656       -0.4739086802       -0.5574184859
 C          1.6922469470       -1.3794265511       -0.0276441947
 C          0.5287342291       -2.0718947528       -0.3193571363
 C          0.2532735703       -3.2437489659        0.3819065290
 C          1.1252302069       -3.7080749164        1.3470711931
 C          2.2799960476       -3.0041346054        1.6456083477
 C          2.5592855531       -1.8297716098        0.9594394848
 N          3.7276627044       -1.0927560568        1.2237392330
 S          3.5689273731        0.5461425439        1.5788801070
 O          4.8051616796        0.8776642344        2.2594770820
 O          2.3563773918        0.8076423611        2.3173719988
 C          3.5610922525        1.3546585905       -0.0058821197
 C          2.4259357677        2.0020018556       -0.4519395863
 C          2.4586201922        2.6190122120       -1.6935690867
 C          3.6141740914        2.5797949092       -2.4585517990
 C          4.7459404109        1.9276881488       -1.9918836025
 C          4.7223991116        1.3093441929       -0.7524889478
 H          5.5799968552        0.7987878387       -0.3471597841
 H          5.6422983407        1.8987108603       -2.5901922431
 H          3.6305082531        3.0594986962       -3.4247443733
 H          1.5757508334        3.1211894965       -2.0570016152
 H          1.5340093980        1.9852375699        0.1555226825
 H          4.3424295410       -1.5293152582        1.8968796922
 H          2.9579602387       -3.3604298717        2.4069918749
 H          0.9027943796       -4.6212822352        1.8786726948
 H         -0.6578572847       -3.7820989175        0.1583909908
 C         -0.4667527603       -1.5900768301       -1.3477809228
 H         -0.8119423190       -2.4663118160       -1.9139974690
 C          0.0972075469       -0.5713781311       -2.3151442173
 C          1.0794000445       -1.0107714293       -3.3579138459
 C         -0.3110233601       -0.6177574017       -3.7553860019
 H         -0.4545815042        0.3149063611       -4.2797517412
 H         -0.9965851572       -1.3967366177       -4.0564247236
 H          1.8941180840       -0.3483426427       -3.6078092422
 H          1.3373524337       -2.0585427001       -3.3880464282
 H          0.2360133122        0.4062415773       -1.8717427134
 O         -0.6147637563        0.8658046778        0.2241103831
