  62
        -98.94468777
 C          2.5738792189        0.1763830031       -0.3534905109
 C          2.1516008737        0.7119862490        0.8877827605
 C          1.6787407351        2.1032718263        0.8563458715
 C          1.6579056759        2.7668904805       -0.3134248609
 C          1.1842252503        4.1800797022       -0.4941589372
 C         -0.3042234004        4.2382015704       -0.8605077451
 C         -1.2050331486        3.4155192336        0.0612303164
 H         -2.2363676748        3.5874209715       -0.2572667077
 H         -1.0049898772        2.3514221891       -0.0893575822
 C         -1.0685661964        3.7485215703        1.5534752407
 H         -0.6088073561        4.7307090030        1.6751297341
 H         -2.0685722731        3.7993559636        1.9890125040
 C         -0.2856655400        2.7108947681        2.3609679947
 H         -0.6608571400        1.7122013260        2.1240503908
 H         -0.4715582162        2.8933744780        3.4230682483
 C          1.2347300299        2.7134857471        2.1553523065
 H          1.6215162437        3.7303595084        2.2571306629
 H          1.6776440635        2.0948921614        2.9414281900
 H         -0.6209536559        5.2832002910       -0.8430909712
 H         -0.4268602181        3.8604075988       -1.8785343224
 H          1.3639944303        4.7348588768        0.4248189876
 H          1.7640566260        4.6324078078       -1.3011148779
 O          2.0560781989        2.2127935176       -1.4890070856
 C          2.4976135744        0.9017656539       -1.5404524994
 O          2.8011739446        0.5041908273       -2.6863914255
 H          0.4818358241       -1.0392293303       -1.1335017729
 C          0.6357867208       -1.8945992765       -0.4869951197
 C          1.9131346196       -2.1804145119       -0.0193211114
 C          2.0789971023       -3.2938542072        0.7932094798
 C          0.9917049215       -4.0768364957        1.1461782185
 C         -0.2828921535       -3.7609391867        0.7118535848
 C         -0.4546883683       -2.6580077130       -0.1137458748
 N         -1.7678866069       -2.2734603268       -0.5231747618
 S         -2.0546401087       -0.6172064190       -0.4915178075
 O         -1.7286644345        0.0035302456       -1.7623929433
 O         -1.4255710296       -0.0798266387        0.6861591077
 C         -3.8244933016       -0.6161761696       -0.2741967550
 C         -4.3234605517       -1.0297479928        0.9461505765
 C         -5.6957238927       -1.0690079423        1.1315580830
 C         -6.5429329906       -0.6960347039        0.0982224658
 C         -6.0278629148       -0.2815860972       -1.1201721857
 C         -4.6551208418       -0.2419214479       -1.3115912690
 H         -4.2089296234        0.0777099480       -2.2397851407
 H         -6.6879807435        0.0102316415       -1.9211378498
 H         -7.6111005863       -0.7273163544        0.2443480073
 H         -6.0994672317       -1.3894007280        2.0784757519
 H         -3.6245667061       -1.3023930847        1.7198401478
 H         -2.0459428741       -2.6649001818       -1.4123671635
 H         -1.1380996310       -4.3487419816        1.0027037321
 H          1.1397361814       -4.9351516214        1.7836164610
 H          3.0614522157       -3.5435752529        1.1600612279
 C          3.0397769062       -1.2665665904       -0.4380685804
 H          3.2500178010       -1.4541334390       -1.5023157923
 C          4.3129510284       -1.4709270264        0.3556616217
 C          5.3069999540       -2.5097080169       -0.0668460990
 C          5.6170908022       -1.0558573420       -0.2540298460
 H          6.3602951785       -0.5979531187        0.3810130610
 H          5.5870860923       -0.6482867211       -1.2544229054
 H          5.0776024138       -3.0938684447       -0.9452901019
 H          5.8436059746       -3.0507346001        0.6977428241
 H          4.1742916925       -1.2894107713        1.4149799168
 O          2.1879469744        0.0680947612        1.9685187213
