  62
        -98.93292590
 C         -2.2848411906        0.1927551265       -0.1536661723
 C         -3.4275289789        0.5425751910       -0.9105585692
 C         -4.6805715801       -0.1227603856       -0.5306317212
 C         -4.6784269620       -1.0188520784        0.4728759689
 C         -5.8516209690       -1.8297868298        0.9569428072
 C         -7.0108381800       -1.0388593247        1.5936076764
 C         -8.1389471711       -0.6757712630        0.6200100126
 H         -8.1280920466       -1.3836495827       -0.2096008819
 H         -9.0964328872       -0.8040358549        1.1288994367
 C         -8.1130909644        0.7542268211        0.0719781922
 H         -8.7992854459        0.7996519808       -0.7764633712
 H         -8.4909397522        1.4364097124        0.8369411079
 C         -6.7452985095        1.2752297524       -0.3697096645
 H         -6.1458173856        1.5260932100        0.5086789317
 H         -6.8958811972        2.2085696833       -0.9159191061
 C         -5.9347082726        0.2963315805       -1.2412657873
 H         -5.6196307480        0.7911668883       -2.1621681134
 H         -6.5355490619       -0.5725112651       -1.5055136889
 H         -6.6185716079       -0.1432793985        2.0746780255
 H         -7.4294202873       -1.6703113515        2.3788679703
 H         -6.2335790380       -2.4245240634        0.1240805935
 H         -5.4408089260       -2.5184993807        1.6978983913
 O         -3.5510358523       -1.3374001262        1.1673838674
 C         -2.3337717073       -0.7367786197        0.8847504716
 O         -1.3942717895       -1.1132618989        1.6108481882
 O         -3.3993648632        1.3628469234       -1.8675939767
 C         -0.9590875597        0.8540128101       -0.4780123349
 C          0.0863329428       -0.1791310904       -0.8181276478
 C         -0.2298865720       -1.1887909444       -1.7244995771
 C          0.7050739465       -2.1426672760       -2.0748858709
 C          1.9834610827       -2.1005706095       -1.5459678535
 C          2.3105382887       -1.0964944519       -0.6437141320
 C          1.3640309183       -0.1462373613       -0.2840019997
 H          1.6487758522        0.6191851404        0.4181724241
 N          3.5923781231       -1.0313588932       -0.0744490996
 S          4.2632160053        0.4934522903        0.2025917792
 O          3.8202965998        0.9769965209        1.4859342657
 O          4.0102392681        1.3567225969       -0.9287583125
 C          5.9962141053        0.0772626934        0.2821271590
 C          6.7689617759        0.1890456534       -0.8585998878
 C          8.1083085493       -0.1623064607       -0.7985889937
 C          8.6490451782       -0.6195305966        0.3938094503
 C          7.8614654400       -0.7252423757        1.5306555995
 C          6.5216104223       -0.3749336519        1.4778420924
 H          5.8735603332       -0.4319180267        2.3369481582
 H          8.2860423342       -1.0778730907        2.4567239632
 H          9.6916458490       -0.8920664497        0.4383232089
 H          8.7239359259       -0.0773269511       -1.6795220570
 H          6.3080923196        0.5589504528       -1.7604003447
 H          4.2516532241       -1.6592940169       -0.5134648094
 H          2.7166073761       -2.8426140828       -1.8236050408
 H          0.4408392583       -2.9215350702       -2.7744996659
 H         -1.2249275480       -1.2155214876       -2.1481244234
 H         -1.1446699528        1.4564205623       -1.3807751845
 C         -0.5455615636        1.7822699712        0.6445959338
 C          0.3219142346        2.9708919568        0.3613035155
 C         -1.1242052612        3.1629522146        0.7035960140
 H         -1.3760273766        3.5760216634        1.6688129459
 H         -1.8029312100        3.4491897848       -0.0866097358
 H          1.0709612834        3.2454629914        1.0895274285
 H          0.6323419657        3.1303367904       -0.6606631474
 H         -0.4000117739        1.2591946405        1.5840426326
