  62
        -98.94078954
 C          1.7192112753        0.2977990687        0.5471757346
 C          2.9318672934        0.3912844119        1.2768849532
 C          4.1372309364        0.6857705004        0.4946319404
 C          4.0445344613        0.8387289484       -0.8385931483
 C          5.1770108927        1.1670161375       -1.7733413579
 C          5.9925325716       -0.0540747060       -2.2199267756
 C          6.9016384148       -0.6568317769       -1.1481291640
 H          7.5688667442       -1.3590437675       -1.6519615186
 H          7.5225470927        0.1284439113       -0.7157658899
 C          6.1563339324       -1.4003221712       -0.0308241157
 H          5.1375806095       -1.6216630185       -0.3576942190
 H          6.6458969642       -2.3582911221        0.1589652392
 C          6.0973563846       -0.6507371906        1.3002736616
 H          5.5170038607       -1.2503875774        2.0063242207
 H          7.1064146258       -0.5401834564        1.7035601879
 C          5.4503716957        0.7379304916        1.2155398905
 H          6.1262343590        1.4384635965        0.7253880984
 H          5.2584387444        1.0886403578        2.2326163601
 H          5.3038536725       -0.8190999430       -2.5859918526
 H          6.6164913133        0.2604660424       -3.0596870371
 H          5.8386860101        1.8964200065       -1.3052432211
 H          4.7270995523        1.6220806766       -2.6583000805
 O          2.8667882486        0.7239110743       -1.5052842897
 C          1.6810351018        0.4264320904       -0.8424059641
 O          0.6998861188        0.3125576260       -1.5989736235
 O          3.0029405572        0.2334179272        2.5249011879
 C          0.4558149873       -0.0278138362        1.3231146971
 C         -0.2989716893       -1.1446216490        0.6482985049
 C          0.3422180233       -2.3678368278        0.4647022204
 C         -0.3008524688       -3.4170507103       -0.1605123915
 C         -1.6080036514       -3.2780851543       -0.5946984198
 C         -2.2592657901       -2.0661555738       -0.4096695790
 C         -1.6026176765       -1.0068272893        0.2018237531
 H         -2.1186288795       -0.0679704865        0.3096930939
 N         -3.5809470560       -1.8838903586       -0.8433828106
 S         -4.6567453264       -1.0605053246        0.1372346503
 O         -4.3636713313       -1.2664493886        1.5369727481
 O         -5.9640546111       -1.4980243193       -0.3058117198
 C         -4.4595761023        0.6574828495       -0.2838382521
 C         -4.4877362211        1.6011831287        0.7237534437
 C         -4.3877542157        2.9428047680        0.3899159494
 C         -4.2622960269        3.3149444658       -0.9398062453
 C         -4.2351515707        2.3543978742       -1.9394051426
 C         -4.3388163081        1.0118933843       -1.6126163505
 H         -4.3198980488        0.2402850409       -2.3638279270
 H         -4.1323532453        2.6474316169       -2.9717961800
 H         -4.1816431660        4.3592475254       -1.1974890916
 H         -4.4068722502        3.6909100382        1.1667083737
 H         -4.5758558354        1.2667635013        1.7453047455
 H         -4.0068488066       -2.6948760557       -1.2677811077
 H         -2.1160258242       -4.0987139597       -1.0785043141
 H          0.2136174810       -4.3555380193       -0.3042254124
 H          1.3609354726       -2.4796380373        0.8115953397
 H          0.8224534540       -0.4097607661        2.2915076366
 C         -0.4142787603        1.1794135922        1.6383832830
 C          0.1894347255        2.5398450089        1.8138004778
 C         -0.6876657721        2.2563347875        0.6331376470
 H         -1.6752703402        2.6931194928        0.6088708495
 H         -0.2316795474        2.1582927778       -0.3390730522
 H         -0.1925855645        3.1719585032        2.6011247684
 H          1.2526831676        2.6394449046        1.6504139105
 H         -1.2279193221        0.9235195815        2.3114889253
