  62
        -98.94431705
 C         -1.0118425360       -1.8233223997       -0.7242025312
 C         -2.2081470140       -1.8198454715        0.0396887330
 C         -3.2386123537       -0.8580124714       -0.3592272807
 C         -3.0274052319       -0.0635356527       -1.4234628551
 C         -3.9584864458        1.0015449205       -1.9341141198
 C         -3.8058104349        2.3391181240       -1.1959237985
 C         -4.3926979116        2.3697473145        0.2160675657
 H         -4.4362754084        3.4174460375        0.5206158883
 H         -5.4159200330        1.9918077460        0.1948368319
 C         -3.5723299831        1.5922026065        1.2551786936
 H         -3.4679584207        2.1964942742        2.1599744433
 H         -2.5613978699        1.4304368553        0.8712126657
 C         -4.1806672677        0.2530835997        1.6748755636
 H         -3.4892965354       -0.2317012283        2.3692551989
 H         -5.1211923007        0.4300576222        2.2022897657
 C         -4.4457811049       -0.7183189059        0.5173381900
 H         -4.6661840948       -1.7016568138        0.9404927449
 H         -5.3047153964       -0.3859873887       -0.0652375536
 H         -2.7434874129        2.5937430946       -1.1463198053
 H         -4.3070422575        3.1043179637       -1.7938882407
 H         -4.9912268172        0.6585054529       -1.8646591490
 H         -3.7115654689        1.1569127152       -2.9866453432
 O         -1.9068891420       -0.1515704185       -2.1814344622
 C         -0.8442392582       -0.9814417538       -1.8241168428
 O          0.1363224961       -0.8708347802       -2.5811752027
 O         -2.3945572320       -2.5851248228        1.0244134751
 C          0.1134401648       -2.6758794231       -0.1621032789
 C          0.6822816041       -1.9730616617        1.0484426253
 C          1.0545864234       -2.6654830581        2.1940094765
 C          1.5475106284       -1.9837267187        3.2934281839
 C          1.6672047036       -0.6056996060        3.2779978031
 C          1.2842400907        0.0976113261        2.1401107756
 C          0.8170216438       -0.5927541978        1.0326762331
 H          0.5114128675       -0.0417775814        0.1575439027
 N          1.3389277403        1.4921024899        2.1025330055
 S          1.2402902693        2.3716452825        0.6946191087
 O          1.6067735442        3.7120578055        1.1035118602
 O         -0.0633421609        2.2351916999        0.0947600809
 C          2.5124529791        1.7193536035       -0.3700666046
 C          3.7843487634        1.5772501079        0.1511783441
 C          4.7917419118        1.0866766978       -0.6623226217
 C          4.5135638411        0.7514532933       -1.9792479175
 C          3.2346508582        0.9062072005       -2.4887121577
 C          2.2219680947        1.3951235550       -1.6782697482
 H          1.2119270444        1.5003039153       -2.0413265500
 H          3.0061315388        0.6375606673       -3.5072969098
 H          5.2973388915        0.3650933137       -2.6114444892
 H          5.7877364382        0.9640031269       -0.2684691986
 H          3.9692753290        1.8537125040        1.1763355998
 H          1.8043002328        1.9601523861        2.8629800079
 H          2.0323032227       -0.0741774687        4.1429717346
 H          1.8319258674       -2.5309686008        4.1792382928
 H          0.9311762147       -3.7376517175        2.2308137963
 H         -0.3627977740       -3.6042858231        0.1935121743
 C          1.1849014871       -3.0623621169       -1.1675519523
 C          2.5100986455       -2.3712893792       -1.2444452176
 C          2.4289837224       -3.7721181214       -0.7210284151
 H          2.8078707133       -4.5752681911       -1.3344408149
 H          2.5727272113       -3.9171167113        0.3384303055
 H          2.9274599422       -2.1981723417       -2.2237422428
 H          2.7060989698       -1.5716959625       -0.5461258085
 H          0.7553773976       -3.3800295877       -2.1111254886
