  62
        -98.93468302
 C          1.9231430758        1.3452429045        0.4137897505
 C          2.4387984715        0.6197592109       -0.6854869503
 C          3.6601097577       -0.1796726025       -0.4417003159
 C          4.1948986511       -0.1960847438        0.7924663369
 C          5.4010963687       -0.9550149976        1.2776618376
 C          5.1112240085       -2.4492664291        1.4952775980
 C          4.2865590363       -3.1115390822        0.3942674167
 H          4.0515846646       -4.1282819859        0.7206592042
 H          3.3383301811       -2.5810858614        0.2858541934
 C          4.9733405049       -3.2053897179       -0.9661620902
 H          5.8964543847       -3.7800752311       -0.8617500610
 H          4.3068799475       -3.7652539882       -1.6274558882
 C          5.3046909309       -1.8736175240       -1.6424837033
 H          5.5656287390       -2.0940461271       -2.6817696038
 H          6.1827115342       -1.4154014682       -1.1951965588
 C          4.1516481767       -0.8756055064       -1.6879910838
 H          4.4134882493       -0.0748774425       -2.3905076242
 H          3.2723956106       -1.3635160275       -2.1246020138
 H          6.0619160068       -2.9733316977        1.6060230294
 H          4.5580777869       -2.5528815173        2.4321007983
 H          6.2302659568       -0.8161012874        0.5904322321
 H          5.6852157508       -0.5136687947        2.2355948211
 O          3.6365853452        0.4855575129        1.8341402992
 C          2.4972014852        1.2505416768        1.6828419277
 O          2.0902066754        1.7820627143        2.7360028330
 H         -0.3076046539       -0.1652456607        0.9733249098
 C         -0.7892424815        0.2009419053        0.0741005076
 C         -0.4005245115        1.4308476890       -0.4449937869
 C         -1.0283950376        1.8917426144       -1.5937260769
 C         -1.9977109219        1.1250766501       -2.2178904016
 C         -2.3657203280       -0.1070076507       -1.7113896307
 C         -1.7524797044       -0.5721027324       -0.5543295895
 N         -2.1259835037       -1.8188226700       -0.0244598668
 S         -3.7558827348       -2.1884768222        0.0465066556
 O         -3.8855105785       -3.1140447488        1.1504716828
 O         -4.2013482420       -2.6745316649       -1.2355997206
 C         -4.5706145418       -0.6461562937        0.4223491405
 C         -5.4846499030       -0.1143671326       -0.4640642346
 C         -6.0786557932        1.1015109391       -0.1654179448
 C         -5.7467854375        1.7625788354        1.0067037992
 C         -4.8294527798        1.2131704072        1.8896424133
 C         -4.2341505445       -0.0028462795        1.5970129661
 H         -3.5208461476       -0.4584831066        2.2653712101
 H         -4.5724452496        1.7281715391        2.8014664258
 H         -6.2052848017        2.7114339609        1.2361584791
 H         -6.7939558322        1.5299498719       -0.8487188559
 H         -5.7113001521       -0.6607897024       -1.3650194649
 H         -1.6536464610       -2.0620148126        0.8331674965
 H         -3.1019236132       -0.7243416008       -2.2000671886
 H         -2.4677354102        1.4894694776       -3.1184649600
 H         -0.7394281877        2.8382129178       -2.0191525250
 C          0.6696187378        2.1954120495        0.2957934224
 H          0.3245076653        2.3291386296        1.3347020918
 C          0.9108420097        3.5914669084       -0.2589495054
 C          2.2409137138        4.2651082383       -0.1039688586
 C          1.7694109983        3.8411428417       -1.4608953569
 H          1.4642697844        4.6082075888       -2.1577552544
 H          2.2349188492        2.9878020339       -1.9272833653
 H          2.2571164391        5.3186522721        0.1318141510
 H          3.0371164142        3.7023355921        0.3619751017
 H          0.0384857448        4.2271655228       -0.1433107156
 O          1.9166045344        0.6204262639       -1.8297727396
