  62
        -98.94738484
 C          2.5642208396        0.1306851728       -0.4043083515
 C          2.1748197952        0.7022153564        0.8312191291
 C          1.7350322127        2.1035808476        0.7785033311
 C          1.7094195403        2.7421464160       -0.4052580130
 C          1.2590098663        4.1597221524       -0.6095464273
 C         -0.2357774861        4.2365795848       -0.9457757683
 C         -1.1313256174        3.4564822308        0.0170685338
 H         -2.1659767214        3.6382510654       -0.2845940683
 H         -0.9534541243        2.3850425832       -0.1077835012
 C         -0.9560115340        3.8293700991        1.4958026892
 H         -0.4719778139        4.8038321428        1.5790903119
 H         -1.9447626981        3.9158373577        1.9509366608
 C         -0.1786627844        2.7980368831        2.3163988014
 H         -0.5856892168        1.8027118256        2.1223922710
 H         -0.3312350026        3.0193635466        3.3765606043
 C          1.3353150266        2.7542940628        2.0725656224
 H          1.7508818239        3.7626534606        2.1411762446
 H          1.7811053397        2.1426419350        2.8626239128
 H         -0.5325396844        5.2875309274       -0.9498026008
 H         -0.3873115063        3.8341618564       -1.9502877638
 H          1.4688637059        4.7325671972        0.2918475728
 H          1.8294202936        4.5816904920       -1.4392355035
 O          2.0786981383        2.1554506680       -1.5739600770
 C          2.4961847594        0.8355852815       -1.6042617386
 O          2.7881770579        0.4132043969       -2.7435699254
 H          0.4087255023       -1.0551926104       -0.9778529132
 C          0.5905221314       -1.9045770375       -0.3347286201
 C          1.8910490668       -2.2095311860        0.0440568892
 C          2.1018037756       -3.3171256416        0.8554295067
 C          1.0297979593       -4.0746194298        1.2956170825
 C         -0.2669965118       -3.7384334692        0.9530465456
 C         -0.4864210139       -2.6414168961        0.1276714377
 N         -1.7870255701       -2.2643035944       -0.2609094494
 S         -2.0952055840       -0.5994156292       -0.2910696476
 O         -1.6407106412       -0.0610619353       -1.5496877411
 O         -1.5738717746        0.0167206822        0.9058008269
 C         -3.8780931028       -0.5964382012       -0.2601344782
 C         -4.5425556981       -0.2445747765        0.8989328627
 C         -5.9286598497       -0.2725047494        0.9113892802
 C         -6.6216985839       -0.6526458745       -0.2278029192
 C         -5.9403002685       -1.0016076944       -1.3847909037
 C         -4.5550885816       -0.9737740404       -1.4047250020
 H         -3.9823601180       -1.2262522041       -2.2818981983
 H         -6.4823294973       -1.2936422330       -2.2696907655
 H         -7.6999019454       -0.6746024247       -0.2152929506
 H         -6.4605599315        0.0021442112        1.8079420029
 H         -3.9599016861        0.0487497809        1.7574655793
 H         -2.5001463710       -2.7497109700        0.2680707644
 H         -1.1022158355       -4.3161237769        1.3191946894
 H          1.2065167170       -4.9295540005        1.9306365011
 H          3.1039777537       -3.5804054346        1.1520672730
 C          3.0028216230       -1.3216305383       -0.4622339865
 H          3.1610890971       -1.5482757905       -1.5277622629
 C          4.3109603648       -1.5120847842        0.2775422236
 C          5.2883567202       -2.5568487677       -0.1682320010
 C          5.5855936344       -1.1063084156       -0.3973427438
 H          6.3551392607       -0.6344853692        0.1947752986
 H          5.5088167954       -0.7181298825       -1.4029135633
 H          5.8599397789       -3.0817241120        0.5822863515
 H          5.0216588662       -3.1584787728       -1.0240390425
 H          4.2193073024       -1.3105890684        1.3386058505
 O          2.2106740171        0.0791471329        1.9250880489
