  62
        -98.94490051
 C         -1.9225024592       -0.9757316666       -0.2959613044
 C         -3.0405743718       -1.2160349009        0.5429257131
 C         -4.3200045461       -0.6657497052        0.0847204749
 C         -4.3756504377        0.0166561501       -1.0734156010
 C         -5.6085678626        0.6256536029       -1.6839649053
 C         -5.9571122822        2.0147379030       -1.1318200462
 C         -6.5192429198        2.0273691608        0.2902935716
 H         -6.9219387843        3.0268658594        0.4662899340
 H         -7.3509983362        1.3253373421        0.3571220766
 C         -5.4873168548        1.7123176347        1.3823444269
 H         -4.4794854022        1.8313210076        0.9772583111
 H         -5.5895961424        2.4316587864        2.1980449821
 C         -5.6150885397        0.3158772629        1.9912645444
 H         -4.8137147703        0.1874594479        2.7231750731
 H         -6.5685091364        0.2315041085        2.5174825807
 C         -5.5155545051       -0.8284051740        0.9740520303
 H         -6.4273006748       -0.8839174585        0.3798284345
 H         -5.3968751445       -1.7656885937        1.5230558581
 H         -5.0641470800        2.6427420409       -1.1761719454
 H         -6.7038596963        2.4521928619       -1.7985749850
 H         -5.4113333708        0.7204553303       -2.7539876625
 H         -6.4566203974       -0.0454696561       -1.5450773940
 O         -3.2826670566        0.2197406142       -1.8543847755
 C         -2.0296405137       -0.2470290135       -1.4805187115
 O         -1.1245535435        0.0418848436       -2.2869813885
 O         -2.9710733742       -1.8638961875        1.6204784546
 C         -0.5698106713       -1.4987785213        0.1587580187
 C          0.2796860557       -0.3239428083        0.5737592027
 C          0.1375391669        0.2063548950        1.8528170481
 C          0.8795643877        1.3028577699        2.2517537046
 C          1.7747243696        1.8991723040        1.3802104210
 C          1.9149936313        1.3828853871        0.0995795835
 C          1.1819662374        0.2719033780       -0.2942745286
 H          1.2923439068       -0.1093690309       -1.2971102930
 N          2.8320560288        1.9846041463       -0.7916255361
 S          4.4440548474        1.8417077556       -0.3569846802
 O          4.6902328410        2.6592291152        0.8034628838
 O          5.2042413857        2.1656115145       -1.5425990944
 C          4.6342255129        0.1173157640        0.0555127839
 C          4.3975599465       -0.2964896042        1.3509738304
 C          4.4537345818       -1.6503316254        1.6405931176
 C          4.7426670536       -2.5612074256        0.6364178487
 C          4.9816992433       -2.1286324472       -0.6589814931
 C          4.9202395388       -0.7770687017       -0.9565237793
 H          5.1014017936       -0.3985693261       -1.9499295429
 H          5.2109486866       -2.8393992758       -1.4368364437
 H          4.7818989869       -3.6148128771        0.8640039020
 H          4.2680850078       -1.9892019138        2.6471300059
 H          4.1804142430        0.4427791258        2.1042185037
 H          2.7098886777        1.6701457071       -1.7442760039
 H          2.3703157834        2.7489164541        1.6727740404
 H          0.7596160700        1.6995535506        3.2485590459
 H         -0.5712017992       -0.2500612234        2.5296003627
 H         -0.7807841944       -2.0977428920        1.0547276349
 C          0.0929380013       -2.3839656222       -0.8761660910
 C          1.3023087499       -3.1781580710       -0.4843532910
 C         -0.0006014369       -3.8727573666       -0.7395375383
 H         -0.1037363056       -4.4653097982       -1.6362082529
 H         -0.5467101278       -4.2639530588        0.1061212667
 H          2.0988766574       -3.2934423150       -1.2030203346
 H          1.6427179184       -3.0908215241        0.5361696775
 H          0.0564086057       -1.9768408077       -1.8790890104
