  62
        -98.93494632
 C          2.0917698696        1.2429746793        0.3128580329
 C          2.7918035318        0.4716811855        1.2753405975
 C          4.0889617768       -0.0740755484        0.8597997151
 C          4.5310333896        0.1666883764       -0.3878322205
 C          5.8050216693       -0.3760868481       -0.9660896721
 C          5.5667666685       -1.7194534948       -1.6697737990
 C          4.7775651180       -2.7254060483       -0.8316138913
 H          3.7616858247       -2.3500364604       -0.6863340903
 H          4.6977300445       -3.6443750897       -1.4165476608
 C          5.4016180035       -3.0419997810        0.5348229570
 H          5.3712101690       -4.1223994995        0.6914000114
 H          6.4505451298       -2.7434680438        0.5412086764
 C          4.6851304796       -2.3995633869        1.7240860760
 H          3.6158694102       -2.6201806442        1.6695400999
 H          5.0671963838       -2.8591243132        2.6396417191
 C          4.8580420744       -0.8820731718        1.8669401819
 H          4.4653491793       -0.5943077935        2.8465921266
 H          5.9195568908       -0.6285499957        1.8346673381
 H          5.0115075422       -1.5337302808       -2.5920934642
 H          6.5353283633       -2.1463672651       -1.9362806804
 H          6.1859392165        0.3421211290       -1.6940125788
 H          6.5376149801       -0.4955625063       -0.1702171082
 O          3.8314800575        0.8992475743       -1.2875624568
 C          2.5919491629        1.4477847090       -0.9747710207
 O          2.0728548590        2.0710078360       -1.9151457211
 O          2.3481986025        0.2481306031        2.4353314881
 C          0.7352229414        1.8010504301        0.7280924161
 C         -0.3310968166        1.1923900549       -0.1477014661
 C         -0.8187176571        1.7274967761       -1.3340038477
 C         -1.7589256256        1.0395402218       -2.0833819212
 C         -2.2338384799       -0.1939855863       -1.6800413758
 C         -1.7512875144       -0.7448634692       -0.4996517556
 C         -0.8200603160       -0.0481823194        0.2548631839
 H         -0.4422538517       -0.4888624562        1.1689513739
 N         -2.2221056119       -1.9985186983       -0.0743637226
 S         -3.8683461842       -2.2860365057       -0.1567025053
 O         -4.1317347575       -3.2728413803        0.8670472912
 O         -4.2295163165       -2.6629821089       -1.5006533817
 C         -4.6319608835       -0.7281290268        0.2599860802
 C         -4.3551905926       -0.1786630896        1.4963871438
 C         -4.9055933899        1.0499184048        1.8223496383
 C         -5.7201175859        1.7047853793        0.9109593005
 C         -5.9942378035        1.1367362269       -0.3232229518
 C         -5.4437993290       -0.0908542135       -0.6557575666
 H         -5.6271287549       -0.5662284432       -1.6056045413
 H         -6.6301469044        1.6469097336       -1.0285688567
 H         -6.1436555437        2.6633012754        1.1660995341
 H         -4.6938312345        1.4930208446        2.7821917574
 H         -3.7225577241       -0.7154931343        2.1851212792
 H         -1.8351334395       -2.3080860491        0.8047301563
 H         -2.9517369465       -0.7449916648       -2.2655580297
 H         -2.1196518986        1.4715970554       -3.0043965089
 H         -0.4428036103        2.6636754510       -1.7042312359
 H          0.5839195420        1.3767638092        1.7331919861
 C          0.7719490854        3.3073817287        0.9478026386
 C          0.8759262425        4.3591139829       -0.1139542220
 C         -0.3883758173        4.2177452612        0.6788495708
 H         -0.6178083045        4.9789392857        1.4095979222
 H         -1.2548678406        3.7987049280        0.1923150904
 H          1.5153328503        5.2060233445        0.0932805952
 H          0.9076146936        4.0508082382       -1.1452267614
 H          1.3400924153        3.5218012294        1.8502957360
