  62
        -98.93743986
 C          2.1476088200        0.9714940200       -0.1728370811
 C          3.0204804501        0.6218315407        0.8912261790
 C          3.8758511300       -0.5524609996        0.6829113797
 C          3.7768862896       -1.2477416504       -0.4637928398
 C          4.5287229194       -2.5003557908       -0.8288834190
 C          6.0555745194       -2.3583892110       -0.9815214794
 C          6.8515302696       -2.6926843402        0.2861581107
 H          6.2540474497       -3.3588495597        0.9097617013
 H          7.7466983795       -3.2492592505        0.0014022509
 C          7.3168647499       -1.4936752996        1.1180337897
 H          8.1875368799       -1.0423701701        0.6368610992
 H          7.6371463601       -1.8678754790        2.0927448499
 C          6.2847206001       -0.3856347994        1.3279786991
 H          6.1809458300        0.1982467100        0.4103744787
 H          6.6687853203        0.2984933212        2.0871505985
 C          4.8855522001       -0.8795486289        1.7444047598
 H          4.8977289600       -1.9501440187        1.9435259705
 H          4.5623456704       -0.3642443382        2.6509856094
 H          6.3594222792       -3.0519859217       -1.7671700389
 H          6.2940745595       -1.3533759213       -1.3285408402
 H          4.3081503095       -3.2696974102       -0.0852015484
 H          4.1036814392       -2.8268053714       -1.7803924286
 O          2.9113865095       -0.8952837810       -1.4514402698
 C          2.0871611496        0.2149736892       -1.3427504805
 O          1.3730959495        0.3959201285       -2.3507451305
 O          3.0811551104        1.2677393815        1.9708593685
 C          1.2701958202        2.1955453703        0.0389381982
 C         -0.1308742498        1.7761120807        0.4150405188
 C         -0.5968820795        1.9433194617        1.7141141988
 C         -1.8686715895        1.5264758321        2.0659776993
 C         -2.6986255998        0.9309421116        1.1330370799
 C         -2.2364977801        0.7464533505       -0.1633011100
 C         -0.9671922201        1.1787428501       -0.5174321306
 H         -0.6082158203        1.0133832593       -1.5222558005
 N         -3.0662206403        0.1244116499       -1.1165554394
 S         -3.6762234104       -1.3900776497       -0.7134643981
 O         -2.8195138303       -2.0740700791        0.2286984322
 O         -3.9123593908       -2.0591331406       -1.9743788276
 C         -5.2452312902       -1.0178994190        0.0434822419
 C         -6.1715232803       -0.3118969794       -0.6991418784
 C         -7.3982086901       -0.0120855988       -0.1288201684
 C         -7.6772161999       -0.4226277778        1.1663972620
 C         -6.7383485699       -1.1342757874        1.8973577323
 C         -5.5088031700       -1.4369993780        1.3327427523
 H         -4.7458724300       -1.9835027977        1.8641917525
 H         -6.9572489897       -1.4535214666        2.9036753426
 H         -8.6323646998       -0.1872080874        1.6085861020
 H         -8.1310005702        0.5403757508       -0.6945737787
 H         -5.9154007405       -0.0164101102       -1.7028411487
 H         -2.6464226905        0.0912784192       -2.0355362994
 H         -3.6883041598        0.5988439519        1.4011401904
 H         -2.2169659493        1.6644422729        3.0781824293
 H          0.0548307807        2.3864644322        2.4530737383
 H          1.7069541504        2.7105299109        0.9050148577
 C          1.2755963400        3.1494453694       -1.1389802325
 C          0.8465209902        4.5688030996       -0.9235971735
 C          2.2882158101        4.2525769492       -1.1827057435
 H          2.7146660200        4.5214992685       -2.1374859438
 H          2.9830825703        4.3258810398       -0.3588227937
 H          0.2794554801        5.0582119591       -1.7002933737
 H          0.5635143905        4.8573809204        0.0772576864
 H          1.0154236498        2.6802535387       -2.0787028221
