  62
        -98.93829063
 C          1.8556430125        0.7825798001       -0.2502994079
 C          2.4509086458        0.1624646011        0.8721046765
 C          3.5149909067       -0.8161887627        0.5934001114
 C          3.8395652607       -1.0897594365       -0.6820564457
 C          4.8546287433       -2.0776325907       -1.2010704381
 C          6.2068669844       -2.1526623805       -0.4791792750
 C          6.7105015448       -0.8208279388        0.0961037454
 H          6.1055963316        0.0038035398       -0.2848018161
 H          7.7357872633       -0.6547857906       -0.2395335288
 C          6.7069335175       -0.7922011192        1.6264029834
 H          7.3926426321       -0.0116609430        1.9646791222
 H          7.0904372391       -1.7459903722        1.9954600391
 C          5.3507143468       -0.5142923944        2.2732629630
 H          5.0617499931        0.5250030650        2.0949535820
 H          5.4622612629       -0.6348618977        3.3535151395
 C          4.1942077553       -1.4075039545        1.7953539973
 H          3.4397541047       -1.4313995356        2.5866659912
 H          4.5319267281       -2.4240907959        1.6087339162
 H          6.9290477014       -2.5329407913       -1.2036658500
 H          6.1521017356       -2.8878753650        0.3225347794
 H          5.0125456433       -1.7982291843       -2.2455957464
 H          4.3936042340       -3.0699272097       -1.2013314331
 O          3.2178263770       -0.4891009856       -1.7363500085
 C          2.2192307195        0.4557146948       -1.5557870197
 O          1.7482059582        0.9141590565       -2.6129655420
 O          2.0965970113        0.4022054589        2.0583083300
 C          0.7593678035        1.8085286335       -0.0298868012
 C         -0.5313710024        1.3332709630       -0.6508086736
 C         -1.3472043871        2.1384660729       -1.4339801038
 C         -2.5186583823        1.6355023847       -1.9749580183
 C         -2.9062972005        0.3297522107       -1.7411228147
 C         -2.1071480750       -0.4787197598       -0.9416408719
 C         -0.9375237471        0.0281030079       -0.3979415279
 H         -0.3160951006       -0.6050613248        0.2234237626
 N         -2.5003020947       -1.8026169955       -0.6817037099
 S         -4.0986470101       -2.0748778816       -0.2662911853
 O         -4.0815778472       -3.2767758750        0.5378825019
 O         -4.9076640946       -2.1282589818       -1.4583910254
 C         -4.5707194782       -0.6653680279        0.7204978409
 C         -5.5823717904        0.1695878919        0.2922645718
 C         -5.9064333766        1.2775229387        1.0590089935
 C         -5.2133178647        1.5321431829        2.2319455317
 C         -4.2014892479        0.6815078015        2.6508897890
 C         -3.8748855409       -0.4286497604        1.8895962634
 H         -3.0958671576       -1.1109007309        2.1909618393
 H         -3.6625347384        0.8802967048        3.5634230607
 H         -5.4619026089        2.3978118715        2.8252709540
 H         -6.6941100677        1.9393868917        0.7372515627
 H         -6.0930438376       -0.0642969945       -0.6275666374
 H         -1.8716088527       -2.3062249422       -0.0739437105
 H         -3.8049951741       -0.0816315904       -2.1710817413
 H         -3.1363166562        2.2693518081       -2.5924459529
 H         -1.0616341803        3.1582537038       -1.6314827851
 H          0.6158412666        1.8501674447        1.0603663076
 C          1.2027230897        3.1727188515       -0.5144002266
 C          0.6635954094        4.4149857637        0.1277750223
 C          2.0832842648        4.0020565290        0.3701712986
 H          2.8758442360        4.5774631440       -0.0843283132
 H          2.3409199162        3.5936405519        1.3366559853
 H          0.4825173727        5.2793057075       -0.4931106789
 H         -0.0429451463        4.2941844477        0.9346953692
 H          1.4056312843        3.1898913945       -1.5793453709
