  62
        -98.93568228
 C         -2.2446313907       -0.1629248679        0.3824508121
 C         -3.3446292562       -0.7676532159       -0.2765194120
 C         -4.4342569162        0.1418841480       -0.6703978597
 C         -4.3267716374        1.4582432196       -0.4201843955
 C         -5.3820682400        2.4808460013       -0.7254122803
 C         -6.3357311603        2.6692478584        0.4628860788
 C         -6.8767351485        1.3593922634        1.0362567717
 H         -6.0509877323        0.7966498625        1.4779115250
 H         -7.5594077088        1.6180548703        1.8486333885
 C         -7.6064414252        0.4727546603        0.0174859630
 H         -7.8884113677        1.0649582708       -0.8537537014
 H         -8.5285976054        0.1041279704        0.4716334710
 C         -6.8130989712       -0.7530299172       -0.4386076596
 H         -6.4486041968       -1.2995393978        0.4348400155
 H         -7.4932571642       -1.4165462676       -0.9791774351
 C         -5.6212219685       -0.4694656712       -1.3612340122
 H         -5.2742713763       -1.4275436934       -1.7589770650
 H         -5.9431622207        0.1543810454       -2.1973182354
 H         -7.1673864445        3.2986792421        0.1410447293
 H         -5.7992222102        3.1942786709        1.2567262187
 H         -4.8878994416        3.4304449188       -0.9374856541
 H         -5.9396550999        2.1675992701       -1.6059599664
 O         -3.2453060171        2.0068199086        0.1926186029
 C         -2.1919787038        1.2141600387        0.6141645324
 O         -1.2770433068        1.8447282178        1.1844347590
 H          1.6048072871       -0.4180631414        1.0227578335
 C          1.3187298159       -0.7981193197        0.0533795353
 C         -0.0081075880       -1.1109931887       -0.2052655589
 C         -0.3533980898       -1.5778233680       -1.4700345870
 C          0.6111725358       -1.7200297369       -2.4502485642
 C          1.9320952499       -1.4010128319       -2.1908784288
 C          2.2899723759       -0.9420206052       -0.9282716584
 N          3.6356079824       -0.6651080195       -0.6316630514
 S          4.0164178112        0.6035260631        0.4149953488
 O          3.7661299808        0.1776079796        1.7687972106
 O          3.3629531668        1.8197663506       -0.0141482687
 C          5.7742546278        0.7090542051        0.1346661552
 C          6.2763116668        1.6967091216       -0.6911686585
 C          7.6420496559        1.7457619251       -0.9237996531
 C          8.4770130635        0.8095171563       -0.3328502024
 C          7.9583241839       -0.1755714200        0.4947269719
 C          6.5943413564       -0.2291692002        0.7330212749
 H          6.1469876942       -0.9698027757        1.3750214851
 H          8.6109577438       -0.9000161361        0.9545346990
 H          9.5390983241        0.8495012979       -0.5162998170
 H          8.0482733700        2.5125131114       -1.5636484965
 H          5.5894305755        2.4070322980       -1.1229802634
 H          4.2133260258       -0.6301911977       -1.4611708791
 H          2.6830113739       -1.5100919806       -2.9586981648
 H          0.3302842823       -2.0799018401       -3.4286425206
 H         -1.3820602319       -1.8331325859       -1.6723217468
 C         -1.0423316701       -0.9488017591        0.8798449257
 H         -0.5922856051       -0.3192706894        1.6652180868
 C         -1.4258727486       -2.2726458563        1.5300773191
 C         -1.1022070471       -3.6100944060        0.9429369839
 C         -0.3633683688       -3.1293660919        2.1531002462
 H         -0.5660384401       -3.5930478975        3.1067238149
 H          0.6620946300       -2.8147572599        2.0242204403
 H         -0.5757985798       -3.6402362950        0.0024320367
 H         -1.8351693234       -4.3938987938        1.0569561684
 H         -2.3661275529       -2.1990344586        2.0673445273
 O         -3.4325439647       -1.9945279418       -0.5348023650
