  62
        -98.94339479
 C         -2.4883447635       -1.1214508362       -0.0046082965
 C         -3.4700180766       -0.6295463762        0.8978374278
 C         -4.4588641444        0.3053328278        0.3486445685
 C         -4.3997853432        0.6281089428       -0.9558128974
 C         -5.3098791779        1.6038451763       -1.6423110291
 C         -4.7296630345        3.0246906309       -1.6077523014
 C         -4.2633576093        3.4680512142       -0.2209692352
 H         -3.4111590298        2.8550384094        0.0817814571
 H         -3.9032891068        4.4950717467       -0.3122843121
 C         -5.3466329201        3.4006180157        0.8646425276
 H         -6.3327902677        3.3514377977        0.4015480404
 H         -5.3103192599        4.3200296085        1.4526716529
 C         -5.1893202518        2.2378421442        1.8463294877
 H         -4.1706639044        2.2276014308        2.2422014682
 H         -5.8657890636        2.4096626634        2.6877412556
 C         -5.5023061974        0.8447323431        1.2859386433
 H         -5.5371743846        0.1476436626        2.1281798076
 H         -6.4829981556        0.8528311373        0.8058689230
 H         -5.4891748090        3.7162456215       -1.9769314179
 H         -3.8741557236        3.0658231802       -2.2859916950
 H         -5.4258888924        1.2930591167       -2.6820049691
 H         -6.2838948241        1.5858562741       -1.1571805916
 O         -3.4604048352        0.1263286516       -1.7943876192
 C         -2.4789745121       -0.7470713419       -1.3481036898
 O         -1.6886149743       -1.0965467836       -2.2494936697
 H          0.2347410017       -0.9274719924       -1.1868350937
 C          0.6136334853       -0.8893043425       -0.1760213815
 C         -0.1451956099       -1.4261149672        0.8544838266
 C          0.3549916047       -1.3616278874        2.1497818284
 C          1.5825630575       -0.7747808097        2.4030212309
 C          2.3332950728       -0.2373114969        1.3729883909
 C          1.8409995676       -0.2932081290        0.0755538646
 N          2.5856290522        0.2709662259       -0.9771258914
 S          4.1713527135       -0.2495201777       -1.1732550008
 O          4.4845723680       -0.0078501023       -2.5646591014
 O          4.3448928338       -1.6039867133       -0.7007559222
 C          5.1194192030        0.8710179969       -0.1646135766
 C          5.9301889209        0.3760430562        0.8380801144
 C          6.6673759136        1.2656321912        1.6042563181
 C          6.5815283180        2.6268453406        1.3551717441
 C          5.7646255470        3.1076600387        0.3425086363
 C          5.0265538429        2.2236327160       -0.4281733923
 H          4.3845808212        2.5551632639       -1.2272352166
 H          5.7006240960        4.1667977760        0.1513712101
 H          7.1549990232        3.3174027962        1.9531644387
 H          7.3038100320        0.8937303957        2.3910517198
 H          5.9606068040       -0.6898890117        0.9981779216
 H          2.0979709584        0.2451800015       -1.8617919340
 H          3.2887081336        0.2235060086        1.5639076619
 H          1.9582603499       -0.7329811794        3.4139221329
 H         -0.2306599612       -1.7682021994        2.9614240463
 C         -1.4706736354       -2.0927285750        0.5702216892
 H         -1.8956788918       -2.4096208625        1.5322121850
 C         -1.2685859871       -3.3257535563       -0.2900428516
 C         -0.7267439779       -4.5715303886        0.3413129304
 C         -2.1598691576       -4.5134390696       -0.0936868706
 H         -2.4617777362       -5.0792939746       -0.9622359383
 H         -2.9217188314       -4.4451272444        0.6691626179
 H         -0.5170317114       -4.5449525326        1.3998451099
 H         -0.0385575504       -5.1783004255       -0.2270852624
 H         -0.9592927633       -3.0999604730       -1.3025208759
 O         -3.5190058404       -0.9674352010        2.1103601278
