  62
        -98.93977849
 C         -1.9284053894       -1.6336491631       -0.0445701628
 C         -1.6507958933       -0.4278336183       -0.7279046859
 C         -2.7015667411        0.6103867965       -0.6913143924
 C         -3.8523651401        0.3480855580       -0.0448566129
 C         -5.0302476360        1.2622706122        0.1614368421
 C         -4.7706201457        2.3167535333        1.2501448016
 C         -3.3987598161        2.9836295369        1.1854071869
 H         -2.6233434459        2.2177775226        1.2473416128
 H         -3.2982157050        3.6190008220        2.0692714757
 C         -3.1571587289        3.8538117544       -0.0453284853
 H         -2.1847667144        4.3343008193        0.0857491548
 H         -3.9130214843        4.6417448973       -0.0800627782
 C         -3.1548400679        3.1254538463       -1.3909773532
 H         -2.7339139962        3.8116052105       -2.1317767500
 H         -4.1684196200        2.9075225438       -1.7171515258
 C         -2.3026092779        1.8606976130       -1.4369611384
 H         -1.2882463744        2.0941707909       -1.0957405177
 H         -2.1925665481        1.5557399559       -2.4846554105
 H         -4.8558906440        1.8248541735        2.2223056295
 H         -5.5516984879        3.0764602176        1.1879595088
 H         -5.3078255078        1.7325122967       -0.7770774309
 H         -5.8653987672        0.6337318047        0.4783794152
 O         -4.0818857304       -0.8408966206        0.5843084450
 C         -3.1367963932       -1.8454940599        0.6182059283
 O         -3.4805829419       -2.8620812212        1.2553833441
 H          1.5995078930       -2.2205156324       -1.0714783076
 C          1.5267557219       -1.9453639466       -0.0316037947
 C          0.3517639738       -2.1723948169        0.6647454621
 C          0.2862598678       -1.7939836344        2.0034013200
 C          1.3698883141       -1.2046416967        2.6255507853
 C          2.5387627634       -0.9668955547        1.9226474041
 C          2.6101740824       -1.3326988658        0.5858771559
 N          3.7861056191       -1.0832179248       -0.1447338271
 S          4.4749122783        0.4390407716       -0.0526280922
 O          5.3364587779        0.5277146636       -1.2103531022
 O          5.1211158159        0.5923695011        1.2273953214
 C          3.1314958663        1.6025124972       -0.1981879771
 C          2.6607806358        2.2534772487        0.9235210822
 C          1.6099324848        3.1460686992        0.7869512728
 C          1.0536410178        3.3712971703       -0.4621846269
 C          1.5343599385        2.7054680039       -1.5790064241
 C          2.5809222887        1.8090498312       -1.4470956489
 H          2.9863133764        1.2814645299       -2.2952948937
 H          1.0938100659        2.8765856872       -2.5479913517
 H          0.2419591623        4.0745886777       -0.5680346584
 H          1.2291978386        3.6626453288        1.6536031584
 H          3.1290232776        2.0614469044        1.8748805901
 H          3.7268319071       -1.3785343844       -1.1086439983
 H          3.3925301866       -0.5029462713        2.3889230705
 H          1.3049400121       -0.9215405954        3.6653321429
 H         -0.6346850109       -1.9614827404        2.5459228411
 C         -0.8865145584       -2.7381094873        0.0149396895
 H         -1.3009842678       -3.5136544094        0.6734268730
 C         -0.6539065349       -3.3353759190       -1.3563333984
 C         -0.0228343400       -4.6888076568       -1.4810486995
 C         -1.4785788641       -4.5087000225       -1.7882173473
 H         -1.7995942388       -4.5619633094       -2.8177885875
 H         -2.2039813526       -4.8929045704       -1.0859208559
 H          0.2435725654       -5.2004079058       -0.5685462373
 H          0.6551830836       -4.8710036170       -2.3011488232
 H         -0.4215812302       -2.5908234260       -2.1086780026
 O         -0.5744988025       -0.2104632102       -1.3435138103
