  62
        -98.93854879
 C          1.7204036600        0.7698214470        0.5627471592
 C          2.8498644150        1.2271684003       -0.1613516549
 C          4.1548210811        0.7276419697        0.3054230776
 C          4.2131329219       -0.0957002254        1.3663800787
 C          5.4676558623       -0.7191428217        1.9047747695
 C          5.7298662110       -2.0865840585        1.2586976400
 C          5.6377405964       -2.0758197369       -0.2672563909
 H          5.8729007458       -3.0845527030       -0.6138710161
 H          4.6055320188       -1.8691278367       -0.5599327850
 C          6.5713778748       -1.0683141689       -0.9528276028
 H          7.3592218638       -0.7647301145       -0.2625401620
 H          7.0545343989       -1.5600549176       -1.7998217933
 C          5.8701199990        0.1760102904       -1.5008074521
 H          5.0204286482       -0.1258218595       -2.1182800413
 H          6.5741922249        0.7047049948       -2.1488274758
 C          5.3722818166        1.1786691048       -0.4520950507
 H          6.1839480799        1.4266211123        0.2346854667
 H          5.0759496993        2.0902132112       -0.9792822469
 H          6.7207596666       -2.4283701777        1.5634529113
 H          4.9928761402       -2.7970184150        1.6408498918
 H          6.3071673146       -0.0515497430        1.7207350954
 H          5.3501270111       -0.8525877678        2.9815490082
 O          3.1105410380       -0.4943103715        2.0518762324
 C          1.8479226498       -0.0806436609        1.6647379649
 O          0.9260149757       -0.5208141352        2.3826210478
 H         -2.0600934616       -0.1145260489        0.2672659273
 C         -1.5388848621       -0.2850586111       -0.6610386039
 C         -0.2860425771        0.2798093661       -0.8510258259
 C          0.3926402757        0.0214133777       -2.0377193187
 C         -0.1751128211       -0.7901092627       -3.0029678488
 C         -1.4251234559       -1.3511428618       -2.8097227894
 C         -2.1153189340       -1.0953598836       -1.6298673253
 N         -3.4037121307       -1.6032641859       -1.4384627615
 S         -4.0734282974       -1.8402299971        0.0715616763
 O         -3.1309407698       -2.4178418148        1.0004130451
 O         -5.2616893777       -2.6217646045       -0.1961051502
 C         -4.5496550294       -0.2043473513        0.5878538805
 C         -5.2990426267        0.5647792808       -0.2804494241
 C         -5.6686283868        1.8427762172        0.1068375927
 C         -5.2870751153        2.3262186526        1.3493806843
 C         -4.5395419807        1.5393922788        2.2120505187
 C         -4.1662405182        0.2602081012        1.8303807959
 H         -3.5714890096       -0.3788555006        2.4653878934
 H         -4.2400760997        1.9158807227        3.1771223292
 H         -5.5712040725        3.3228011313        1.6481735200
 H         -6.2487478303        2.4589605903       -0.5609364519
 H         -5.5766208346        0.1539786625       -1.2367035664
 H         -3.7239694869       -2.2679981298       -2.1258724410
 H         -1.8656660522       -1.9825418706       -3.5660566448
 H          0.3618148057       -0.9876971523       -3.9186510230
 H          1.3612444248        0.4688533994       -2.1982274779
 C          0.2952293551        1.1690391488        0.2186658323
 H         -0.2791774199        0.9855388406        1.1408594363
 C          0.1512224324        2.6502611533       -0.1106674796
 C         -0.1943519349        3.1674385750       -1.4713056338
 C         -1.2112957445        3.2214215699       -0.3735434874
 H         -1.4621703917        4.1787881291        0.0568600786
 H         -2.0378602674        2.5272135225       -0.4206273578
 H          0.2786548841        4.0836114522       -1.7901332723
 H         -0.3385004973        2.4542048461       -2.2670226301
 H          0.8299536622        3.2599756011        0.4768870356
 O          2.7957333518        2.0071494967       -1.1454539382
