  62
        -98.94308298
 C         -1.2081540599       -1.1269385507       -0.0614942790
 C         -1.7617730807       -0.1692586305        0.8232357203
 C         -2.6364998314        0.8425825884        0.2163588495
 C         -2.8561568813        0.8102029673       -1.1105604905
 C         -3.7664117319        1.7457545360       -1.8513480413
 C         -5.1918643615        1.1824240949       -1.9375815709
 C         -5.7476120912        0.6980715055       -0.5982897706
 H         -6.7684593709        0.3530845146       -0.7764365804
 H         -5.1702414706       -0.1673560439       -0.2650059999
 C         -5.7528258421        1.7609421763        0.5093443686
 H         -5.6587509728        2.7545680360        0.0695574779
 H         -6.7153880321        1.7250293659        1.0239174485
 C         -4.6707801220        1.5722676679        1.5740843488
 H         -4.7039750913        0.5469703181        1.9507433496
 H         -4.8999261026        2.2362446883        2.4117945883
 C         -3.2349884322        1.8764101086        1.1281128187
 H         -3.1962630529        2.8659982283        0.6681892979
 H         -2.6060711723        1.8842563898        2.0225702687
 H         -5.8443208520        1.9563316841       -2.3462076916
 H         -5.1894379908        0.3392418444       -2.6323863703
 H         -3.7766747127        2.7105560664       -1.3477123520
 H         -3.3766613219        1.8781496456       -2.8622816313
 O         -2.3006414005       -0.1181803829       -1.9312042298
 C         -1.4655479698       -1.1115749719       -1.4326959590
 O         -1.0217881091       -1.8859645422       -2.3013651884
 H          0.8560832594       -0.1304343198       -0.8830538696
 C          1.5703487500       -0.9028096590       -0.6276998089
 C          1.1467888908       -2.0277033389        0.0622741519
 C          2.0974847215       -2.9939855279        0.3809905427
 C          3.4241790514       -2.8308608372        0.0253717926
 C          3.8385528006       -1.7045530174       -0.6654071482
 C          2.8969563899       -0.7459236483       -1.0027937090
 N          3.3132211591        0.4259169715       -1.6875415198
 S          3.9729163781        1.5734065027       -0.6558421006
 O          4.0871563373        2.7899407023       -1.4279340015
 O          5.1947295985        1.0412752741       -0.1103192201
 C          2.7530596579        1.7623611628        0.6309173592
 C          1.7010239473        2.6325883218        0.4262859885
 C          0.6945089571        2.7029591218        1.3756862383
 C          0.7515162577        1.8978779227        2.5028118689
 C          1.8119467983        1.0253212036        2.6900515297
 C          2.8220106484        0.9504610337        1.7450583798
 H          3.6604721889        0.2811243644        1.8511222203
 H          1.8439608487        0.3937723243        3.5629682501
 H         -0.0422196424        1.9357462826        3.2313601189
 H         -0.1368252834        3.3743196910        1.2294256878
 H          1.6931111969        3.2430418512       -0.4633402020
 H          2.5581400888        0.8586912505       -2.2023123002
 H          4.8695570605       -1.5482252368       -0.9369485982
 H          4.1461047020       -3.5882651364        0.2893312632
 H          1.7916531621       -3.8780419377        0.9171828033
 C         -0.2871221691       -2.1792305696        0.5164467919
 H         -0.3047623093       -2.0083332988        1.6039544218
 C         -0.8120808480       -3.5772281602        0.2389610729
 C         -0.7424521273       -4.6469876094        1.2861825537
 C         -2.0614932778       -4.0322534706        0.9307968231
 H         -2.7774778773       -4.6165765716        0.3727019935
 H         -2.5117067183       -3.3497472804        1.6371895626
 H         -0.5488437965       -5.6615533595        0.9722324045
 H         -0.3168778176       -4.3897805683        2.2446191835
 H         -0.6858661078       -3.8698310809       -0.7970179469
 O         -1.5336043207       -0.1623849694        2.0611199603
