  62
        -98.94615321
 C         -1.0280839524       -1.5688179868       -0.1551615613
 C         -1.1638449448       -0.1799948565       -0.4017126941
 C         -2.2455175154        0.4949297455        0.3287978212
 C         -2.9749738502       -0.1794256654        1.2337227107
 C         -4.0801698585        0.3851347203        2.0847093653
 C         -5.4452847030        0.4352897592        1.3844460342
 C         -5.5817541567        1.5044179406        0.2996135140
 H         -6.6425510427        1.5731579206        0.0504794615
 H         -5.2791224127        2.4704075452        0.7049886560
 C         -4.7908407421        1.2102878608       -0.9826958401
 H         -4.5148485187        0.1536419236       -1.0052852101
 H         -5.4262109231        1.3944339046       -1.8518658739
 C         -3.5284008861        2.0546969961       -1.1561450194
 H         -3.0288076833        1.7391825462       -2.0751827014
 H         -3.8041584946        3.1059006963       -1.2640367822
 C         -2.5216692685        1.9298373763       -0.0048315135
 H         -2.8846655788        2.4608960985        0.8753087991
 H         -1.5776333924        2.3785799663       -0.3216239590
 H         -5.6529874443       -0.5480505751        0.9562333306
 H         -6.1976552326        0.6286311889        2.1526604268
 H         -3.8052525534        1.3839841739        2.4255758217
 H         -4.1632376759       -0.2669376387        2.9571357017
 O         -2.7675740128       -1.4971267562        1.4981858207
 C         -1.8166488035       -2.2193376418        0.7983893520
 O         -1.7679445403       -3.4279030549        1.1096662441
 O         -0.4389064020        0.4873398667       -1.1859930807
 C         -0.0021670822       -2.4531355964       -0.8484480060
 C          1.3305710174       -2.3759095689       -0.1432912349
 C          1.9835754759       -3.5229596860        0.2918707174
 C          3.1954034906       -3.4323979608        0.9536448451
 C          3.7651934778       -2.1988545025        1.2136934813
 C          3.1173777387       -1.0468332385        0.7831890750
 C          1.9222730314       -1.1429701156        0.0879096934
 H          1.4307490505       -0.2448457862       -0.2471143811
 N          3.6546284910        0.2266084875        1.0250558490
 S          2.6201663986        1.4909737399        1.4009676769
 O          3.4528177646        2.4304356826        2.1282113355
 O          1.4465481575        1.0298123138        2.1085600392
 C          2.1793532225        2.2385166154       -0.1525433429
 C          1.1314312468        3.1361130573       -0.1446093141
 C          0.7843314041        3.7753320115       -1.3233065302
 C          1.4896814699        3.5064504027       -2.4851296162
 C          2.5419903853        2.6053849084       -2.4750905964
 C          2.8967352543        1.9651651460       -1.2982746758
 H          3.7026433069        1.2507179776       -1.2629278364
 H          3.0847510946        2.3928152630       -3.3823798055
 H          1.2121374993        3.9981487664       -3.4043057086
 H         -0.0387365585        4.4726080967       -1.3330453918
 H          0.6016154677        3.3036038782        0.7806093761
 H          4.4854033373        0.2436736759        1.5986324973
 H          4.6988732206       -2.1257089048        1.7504767388
 H          3.6936027093       -4.3302402089        1.2868462143
 H          1.5268450709       -4.4875741555        0.1257444442
 H         -0.3754183518       -3.4815024041       -0.7451872894
 C          0.1607898133       -2.1460336984       -2.3248488488
 C          0.6910005159       -3.2105983045       -3.2353874619
 C         -0.7490927266       -2.8029885734       -3.3167016034
 H         -1.0793597881       -2.2300350041       -4.1699023239
 H         -1.4949771641       -3.4854537106       -2.9349475731
 H          1.3534885601       -2.9191170775       -4.0355690586
 H          0.9202829987       -4.1726247695       -2.8026461449
 H          0.4528665459       -1.1223617743       -2.5171315413
