  62
        -98.94548541
 C         -1.7189039821       -1.4433304518        0.2078646122
 C         -1.5155698494       -0.1284220390       -0.2780091353
 C         -2.5140016093        0.8632614367        0.1436207713
 C         -3.5131165000        0.5028911417        0.9688404329
 C         -4.5896392681        1.4073936693        1.5046715761
 C         -5.7772169168        1.5981008154        0.5512047613
 C         -5.4960025982        2.4734902460       -0.6707239906
 H         -6.4601146633        2.7008417854       -1.1301094013
 H         -5.0597869967        3.4186451182       -0.3461677055
 C         -4.5899956209        1.8194536493       -1.7232679693
 H         -4.5541665883        0.7409174518       -1.5529625038
 H         -5.0183950338        1.9715875741       -2.7166255328
 C         -3.1616065185        2.3631654518       -1.7568979197
 H         -2.6020611016        1.8056424445       -2.5121790848
 H         -3.1778545615        3.4133630234       -2.0565004938
 C         -2.4078083928        2.2455392205       -0.4255138722
 H         -2.7847327434        2.9801170862        0.2854630585
 H         -1.3494348517        2.4398587445       -0.6115777864
 H         -6.1241502951        0.6152335305        0.2237584643
 H         -6.5842852589        2.0602506665        1.1244392476
 H         -4.9570363945        0.9432870628        2.4224739261
 H         -4.1623903474        2.3790168429        1.7536581802
 O         -3.6503235445       -0.7645131707        1.4430305945
 C         -2.7712589233       -1.7655504298        1.0666290894
 O         -3.0242291756       -2.8835377675        1.5597941191
 O         -0.5610127892        0.2078395519       -1.0250756885
 C         -0.7594915728       -2.5616193197       -0.1661885121
 C          0.6019896816       -2.2059334872        0.3770449679
 C          0.8124938130       -2.2747591083        1.7516837884
 C          2.0211961158       -1.8924742786        2.3014920903
 C          3.0410995138       -1.4182790381        1.4940569788
 C          2.8350079107       -1.3330504000        0.1241745961
 C          1.6275857669       -1.7403890497       -0.4288736888
 H          1.4837822051       -1.6648584928       -1.4945777360
 N          3.8562761279       -0.8347726813       -0.7073760048
 S          4.5453754124        0.6397790368       -0.3165896900
 O          5.2272830459        1.0641903689       -1.5185142888
 O          5.3693867935        0.4807232780        0.8558465534
 C          3.1858765350        1.7368750570        0.0385614886
 C          2.5438262064        2.3485381980       -1.0190924813
 C          1.4708477152        3.1841030029       -0.7598232333
 C          1.0526622432        3.3828802084        0.5467177904
 C          1.7017738584        2.7539201667        1.5971975099
 C          2.7810821979        1.9230359936        1.3445017940
 H          3.3184433763        1.4272719429        2.1359967453
 H          1.3695502109        2.9069210131        2.6116562278
 H          0.2155331008        4.0329393352        0.7485084089
 H          0.9616048821        3.6716302788       -1.5759042781
 H          2.9019971403        2.1744376961       -2.0210132881
 H          3.6058687571       -0.8417555021       -1.6860270956
 H          3.9879629755       -1.1077550861        1.9051362949
 H          2.1718936181       -1.9594220951        3.3684419003
 H          0.0078155361       -2.6258600275        2.3835872879
 H         -1.1165362609       -3.4579558706        0.3583737623
 C         -0.7846696491       -2.8257632576       -1.6567861239
 C         -0.2305851440       -4.1118343793       -2.1898870507
 C         -1.7099788674       -3.8725039792       -2.1967306702
 H         -2.1992689595       -3.6900316861       -3.1418890495
 H         -2.3205563420       -4.4124748452       -1.4876912579
 H          0.2959429657       -4.0982068720       -3.1321456486
 H          0.1656251077       -4.8173570539       -1.4753155738
 H         -0.6547340298       -1.9294543719       -2.2512951970
