  62
        -98.94361412
 C         -1.7985061922        0.8629686552       -0.8260704514
 C         -1.9992770744        0.4022658950        0.4975182932
 C         -3.3960971078        0.3689866714        0.9552392888
 C         -4.3722628772        0.7852892447        0.1280238770
 C         -5.8384681597        0.7523952526        0.4469700086
 C         -6.4761436723       -0.5671341148       -0.0101175197
 C         -5.7067520094       -1.8115651588        0.4333288438
 H         -6.2648639782       -2.6815808385        0.0803999090
 H         -4.7358617378       -1.8284014083       -0.0673362407
 C         -5.4950785179       -1.9205822379        1.9497753025
 H         -5.7153453949       -2.9440023681        2.2607470047
 H         -6.1962551218       -1.2665199452        2.4693896953
 C         -4.0712405834       -1.6098393798        2.4152478018
 H         -3.3577139854       -2.1952446959        1.8296199951
 H         -3.9780475247       -1.9275301799        3.4571512642
 C         -3.6539477008       -0.1353715199        2.3471428878
 H         -4.4002990536        0.4823706873        2.8505265437
 H         -2.7047377332       -0.0344228377        2.8811199099
 H         -6.5270180395       -0.5672126888       -1.1014813599
 H         -7.4958414804       -0.6103216729        0.3769201607
 H         -6.3228401570        1.5794389148       -0.0748848806
 H         -5.9751895071        0.8819349599        1.5187210879
 O         -4.1359217949        1.2431937104       -1.1285797917
 C         -2.8496025049        1.2790821118       -1.6419712377
 O         -2.7741234047        1.6923648505       -2.8173108388
 O         -1.0648105402        0.0369827048        1.2563719331
 C         -0.3934056281        0.9118188266       -1.3981658528
 C          0.2352618667       -0.4588513570       -1.3351145906
 C         -0.4881972121       -1.5556758814       -1.7974213434
 C          0.0470515665       -2.8274544870       -1.7439855961
 C          1.3182346685       -3.0332024304       -1.2364145451
 C          2.0528481863       -1.9453659626       -0.7816395902
 C          1.5111360267       -0.6677549297       -0.8379158037
 H          2.0982183451        0.1640574372       -0.4888818676
 N          3.3264908162       -2.1269485916       -0.2308504254
 S          4.5119359477       -0.9606419285       -0.3475334593
 O          4.5064884229       -0.3175377410       -1.6410527466
 O          5.7326288505       -1.6549107607        0.0042545359
 C          4.1276759761        0.2216536677        0.9273296426
 C          3.5923428887       -0.2180165469        2.1214058857
 C          3.3214727867        0.7099556308        3.1140972162
 C          3.5951965614        2.0523572120        2.9013292706
 C          4.1401449580        2.4770372883        1.6995762182
 C          4.4106054076        1.5543433827        0.7014764665
 H          4.8238731889        1.8414763059       -0.2526514834
 H          4.3517198804        3.5219022913        1.5358762616
 H          3.3799158961        2.7721591253        3.6753488540
 H          2.8922817120        0.3837856554        4.0477758276
 H          3.3821304121       -1.2661872102        2.2533151669
 H          3.6931929514       -3.0658029440       -0.2672813014
 H          1.7354238486       -4.0275211754       -1.1884993004
 H         -0.5282794685       -3.6682881655       -2.1018640663
 H         -1.4817989480       -1.3953795744       -2.1947068187
 H         -0.5022511216        1.1888562044       -2.4572862838
 C          0.4149320088        1.9823971878       -0.6946708161
 C          1.5361356000        2.6751805399       -1.4070020829
 C          0.2591087441        3.4078425812       -1.1278291852
 H          0.2613288792        4.1795350119       -0.3730360782
 H         -0.4118948181        3.6043166988       -1.9516398602
 H          2.4152745826        2.9436532998       -0.8411362532
 H          1.7440592995        2.3775003520       -2.4238865771
 H          0.5247358339        1.7906709843        0.3668291282
