  62
        -98.93536257
 C         -1.1476998991       -1.3043312446        0.1942690911
 C         -1.7706097214       -0.3519743909        1.0358468248
 C         -3.0052127477        0.2798936735        0.5365383722
 C         -3.4207940016       -0.0032113888       -0.7106373784
 C         -4.6427671380        0.4972984061       -1.4387568596
 C         -4.9496526390        1.9982332664       -1.3221298800
 C         -6.1835746628        2.3028827419       -0.4706714994
 H         -6.5839243912        3.2734367648       -0.7719829483
 H         -6.9480045565        1.5536088852       -0.6869207292
 C         -5.9370905685        2.3530561452        1.0360553897
 H         -5.3671084890        3.2527110444        1.2784669777
 H         -6.9091497667        2.4417588590        1.5268556068
 C         -5.2017568094        1.1447865490        1.6192791491
 H         -5.5613976627        0.2227455913        1.1637606503
 H         -5.4418410333        1.0900475260        2.6831850212
 C         -3.6734682916        1.2323813184        1.4901847944
 H         -3.2099985824        1.0250345361        2.4599002788
 H         -3.3763478453        2.2531033524        1.2302671332
 H         -5.1328044211        2.3789784240       -2.3283934239
 H         -4.0789147246        2.5257100362       -0.9342982416
 H         -4.4745779026        0.2339165772       -2.4855584861
 H         -5.5063080116       -0.0841830988       -1.1057006638
 O         -2.7412221315       -0.8632091527       -1.5209741817
 C         -1.5957833902       -1.5262398015       -1.1076282882
 O         -1.0941941511       -2.2572787861       -1.9813142697
 O         -1.3144923554       -0.0414048254        2.1700566753
 C          0.1147028779       -1.9771486925        0.7003625829
 C          1.2259547236       -1.8122373854       -0.3053892375
 C          1.9944122910       -2.8552404481       -0.8040728954
 C          3.0098387795       -2.6011780882       -1.7103569798
 C          3.2995831394       -1.3107816730       -2.1142128660
 C          2.5340383813       -0.2599134394       -1.6213761785
 C          1.5049312163       -0.5206070298       -0.7331214307
 H          0.8924496676        0.2975322920       -0.3847035044
 N          2.7928228923        1.0696244448       -1.9903896473
 S          2.6200328379        2.2683777692       -0.8373433139
 O          1.2279964780        2.5984597120       -0.6563405829
 O          3.4633293762        3.3458347419       -1.3107652410
 C          3.3102714664        1.5676623487        0.6519591668
 C          4.6681111361        1.3113519899        0.6612932125
 C          5.2335937199        0.7193030661        1.7780961180
 C          4.4340142170        0.3894812835        2.8621146809
 C          3.0749113803        0.6595953540        2.8408914137
 C          2.5036701182        1.2550179181        1.7267226390
 H          1.4472732651        1.4710187557        1.6825881836
 H          2.4480119085        0.4052202778        3.6808272790
 H          4.8712150882       -0.0786584348        3.7298407374
 H          6.2915294523        0.5134594192        1.7991406925
 H          5.2581587534        1.5907197556       -0.1963220362
 H          3.6162571495        1.2032366161       -2.5584557905
 H          4.0976786072       -1.1160759263       -2.8140045738
 H          3.5912841408       -3.4217778829       -2.1021824039
 H          1.7845476124       -3.8684785315       -0.5040364052
 H          0.3923496676       -1.3863598235        1.5904082394
 C         -0.0738775394       -3.4083142404        1.1790515198
 C         -1.4147415066       -3.9014299245        1.6324334199
 C         -0.8047987270       -4.4393928098        0.3744763924
 H         -0.4308508948       -5.4528966844        0.3819427284
 H         -1.2181815717       -4.1322284095       -0.5728014976
 H         -1.4601757304       -4.5419479192        2.5004845099
 H         -2.2525057235       -3.2245711517        1.5437886084
 H          0.7800841667       -3.7569469654        1.7515889419
