  62
        -98.93270001
 C          2.0084904125        1.5057386812        0.3021337841
 C          1.6610444609        0.3377337066       -0.4143789012
 C          2.7538011503       -0.6170306679       -0.7029673323
 C          3.9996498817       -0.3295635573       -0.2843809651
 C          5.2495974895       -1.1550897521       -0.4336792527
 C          5.2988536837       -2.3354054261        0.5502195544
 C          3.9918352289       -3.1117160355        0.6881939478
 H          4.1251942845       -3.8453848600        1.4874912498
 H          3.2010481874       -2.4286285383        1.0035798092
 C          3.5463511069       -3.8621079405       -0.5647014952
 H          4.3266927471       -4.5690885864       -0.8550344894
 H          2.6580283792       -4.4404031591       -0.2987921065
 C          3.2021429536       -2.9954042061       -1.7780635118
 H          2.6751469356       -3.6325131728       -2.4944781526
 H          4.1010476574       -2.6477522397       -2.2801858348
 C          2.2763840075       -1.8196597778       -1.4813065966
 H          1.8990555597       -1.4249741166       -2.4330155972
 H          1.3883970082       -2.1866034248       -0.9537890789
 H          5.5578388228       -1.9415193129        1.5360359659
 H          6.0962818479       -3.0114970157        0.2374283118
 H          6.0907394347       -0.4911615729       -0.2220212046
 H          5.3500110278       -1.4992502828       -1.4587293028
 O          4.2856063271        0.8058649578        0.4157166094
 C          3.3156383845        1.7321222783        0.7400195054
 O          3.7271690210        2.6969005383        1.4141593998
 O          0.4923839074        0.0737255174       -0.7999583135
 C          0.9750974343        2.5536470085        0.6799827158
 C         -0.2906017660        1.8765592868        1.1442311069
 C         -0.2290378315        1.0431340689        2.2584786728
 C         -1.3459949817        0.3622603815        2.7021171714
 C         -2.5541028168        0.4976167110        2.0402938514
 C         -2.6281416716        1.3316493998        0.9340785622
 C         -1.5084276321        2.0246546408        0.4979666741
 H         -1.5869831510        2.6409526462       -0.3845109033
 N         -3.8704053388        1.4273292294        0.2470668823
 S         -4.0298544984        0.2839575113       -0.9922724768
 O         -3.1188275367        0.5806319696       -2.0772668280
 O         -5.4310940304        0.3034684152       -1.3573273701
 C         -3.6217700739       -1.2606392243       -0.2156665333
 C         -4.6433778422       -2.0046664258        0.3419234447
 C         -4.3348170425       -3.1996833526        0.9711654802
 C         -3.0157528827       -3.6231872562        1.0343395703
 C         -2.0040155760       -2.8620856347        0.4693005771
 C         -2.3022790752       -1.6657730734       -0.1648804895
 H         -1.5330947220       -1.0485120053       -0.6039515822
 H         -0.9772194472       -3.1879131639        0.5233301584
 H         -2.7729522547       -4.5517622762        1.5268034107
 H         -5.1195120031       -3.7941751893        1.4106837278
 H         -5.6521137169       -1.6331560773        0.2641418460
 H         -3.9962143232        2.3349409953       -0.1844138779
 H         -3.4339180791       -0.0319896170        2.3677305143
 H         -1.2756892291       -0.2832357159        3.5641155778
 H          0.7203564968        0.9248412407        2.7637517005
 H          1.4116710925        3.0869430584        1.5407539151
 C          0.7339826189        3.5983918310       -0.4000128698
 C          1.8078690354        3.9661995861       -1.3786200956
 C          0.5894616451        3.2307196647       -1.8453736015
 H         -0.1360504281        3.7636837824       -2.4436212166
 H          0.6799369600        2.1881863118       -2.1079259957
 H          1.9181358621        5.0052927861       -1.6501293518
 H          2.7432376337        3.4286284337       -1.3244977953
 H          0.1152874749        4.4160275671       -0.0413212751
