  62
        -98.94122732
 C          2.0211139557        1.2361342512        0.1257151554
 C          2.7959009746        0.6564574412        1.1625748284
 C          3.9652447751       -0.1219893840        0.7408775495
 C          4.2299788522       -0.2685221649       -0.5698215732
 C          5.3963800366       -1.0136107962       -1.1600157888
 C          5.1695525075       -2.5260202141       -1.2906352282
 C          5.1919916559       -3.3039828666        0.0258506782
 H          5.2386209226       -4.3644615287       -0.2297757063
 H          6.1024029976       -3.0613396469        0.5748260104
 C          3.9689707548       -3.0666644244        0.9228619500
 H          3.1654546842       -2.6214854003        0.3308788401
 H          3.5980024284       -4.0249756953        1.2939113709
 C          4.2380933625       -2.1819559554        2.1404417010
 H          3.2987159435       -2.0506331903        2.6837106514
 H          4.9442852234       -2.6821217023        2.8067674289
 C          4.7875046985       -0.7900333916        1.8014168770
 H          4.7360105881       -0.1730833408        2.7019167008
 H          5.8280874246       -0.8631598690        1.4861375561
 H          4.2161084731       -2.6938474481       -1.7973785434
 H          5.9602730480       -2.9197243813       -1.9334305650
 H          5.5540669477       -0.6025532582       -2.1594970818
 H          6.2898018648       -0.8285662085       -0.5628937829
 O          3.4455270921        0.2746911385       -1.5364470541
 C          2.3106775703        1.0156570540       -1.2222042112
 O          1.6751101886        1.4036877237       -2.2187625048
 O          2.5187087115        0.7805961263        2.3855699884
 C          0.7944386251        2.0346286012        0.5300095474
 C         -0.4077536568        1.5605534509       -0.2473266858
 C         -1.1743133974        2.3796725482       -1.0642706742
 C         -2.2544953489        1.8622409480       -1.7589424905
 C         -2.5967409316        0.5275903306       -1.6512676142
 C         -1.8430620225       -0.2988438507       -0.8265071404
 C         -0.7675185589        0.2230969803       -0.1255236161
 H         -0.1767618048       -0.4239059888        0.5119629149
 N         -2.1837234953       -1.6557107832       -0.7031914862
 S         -3.7973993389       -2.0657912386       -0.5494993010
 O         -3.7974893265       -3.3272172581        0.1580196716
 O         -4.4258203658       -2.0724015079       -1.8469697248
 C         -4.5140455056       -0.7827068553        0.4620245130
 C         -5.5190518393        0.0158294592       -0.0441167537
 C         -6.0387292659        1.0242905128        0.7518045657
 C         -5.5438098452        1.2178126565        2.0318949522
 C         -4.5357939834        0.4047225292        2.5276384528
 C         -4.0140728755       -0.6060085784        1.7371030951
 H         -3.2342850854       -1.2592160074        2.0951481768
 H         -4.1520985420        0.5561384372        3.5238654487
 H         -5.9456167471        2.0057467938        2.6490684639
 H         -6.8240935208        1.6563670643        0.3699906960
 H         -5.8732126702       -0.1683466002       -1.0452712424
 H         -1.6072692153       -2.1711929788       -0.0554779542
 H         -3.4199070279        0.1071156983       -2.2057061087
 H         -2.8333094384        2.5072128673       -2.4021905145
 H         -0.9098101242        3.4173469851       -1.1811904712
 H          0.6373451240        1.7652736215        1.5883157124
 C          0.9838979868        3.5433506364        0.4983036152
 C          2.3390297694        4.1544576615        0.6893642478
 C          1.6543788376        4.2509438156       -0.6394473780
 H          1.2651485989        5.2114214578       -0.9445963803
 H          2.0223138047        3.6504823636       -1.4561334827
 H          2.4203273992        5.0447845524        1.2947160379
 H          3.1821525887        3.4850834672        0.7820965306
 H          0.1557325636        4.0624342053        0.9709544465
