  62
        -98.94420269
 C          1.9794203990        1.2964817598        0.0338017924
 C          2.3090895512        0.3288217280       -0.9459200593
 C          3.7217430595       -0.0786973273       -0.9937303872
 C          4.6019943518        0.4767440334       -0.1418015933
 C          6.0550557381        0.1137627859       -0.0491759770
 C          6.2840950785       -1.0050319847        0.9766498962
 C          5.3460438481       -2.2002907490        0.8073110319
 H          5.6205040734       -2.9386914485        1.5638360429
 H          4.3224216161       -1.8854034065        1.0239393913
 C          5.3914276254       -2.8515526472       -0.5820457944
 H          6.3042533436       -2.5557856435       -1.1005522687
 H          5.4256864000       -3.9361324310       -0.4589944247
 C          4.1829155404       -2.5422057900       -1.4677134215
 H          3.2617905026       -2.7490480584       -0.9163687821
 H          4.2087216569       -3.2192625483       -2.3258690935
 C          4.1065064833       -1.1114190438       -2.0154745738
 H          5.0528546635       -0.8490666442       -2.4926959282
 H          3.3201024665       -1.0891095609       -2.7755661579
 H          7.3201194435       -1.3393556430        0.8973035564
 H          6.1355027118       -0.5932983482        1.9775607943
 H          6.4093920988       -0.1996728141       -1.0291779129
 H          6.6115864228        0.9992950978        0.2623387506
 O          4.2506592903        1.4114078459        0.7773688954
 C          2.9371850899        1.8278505540        0.9018726807
 O          2.7491737433        2.6685680433        1.8034739629
 H         -1.0123211284       -0.0576565359       -1.0791880094
 C         -1.0097490528       -0.1981815559       -0.0099994943
 C         -0.2678370085        0.6531559392        0.7943343709
 C         -0.2602159446        0.4318501639        2.1684170022
 C         -0.9781882169       -0.6125647449        2.7217308354
 C         -1.7127374729       -1.4647191601        1.9148169706
 C         -1.7167172672       -1.2574402130        0.5426298347
 N         -2.4694131567       -2.1214551211       -0.2848865287
 S         -4.1307897756       -2.0177809038       -0.0973726903
 O         -4.4875171419       -2.5313521095        1.2004466119
 O         -4.7018703821       -2.6987447767       -1.2368548805
 C         -4.4759280500       -0.2701641242       -0.1811244091
 C         -4.7013322040        0.3026916867       -1.4168313567
 C         -4.8908792604        1.6727181140       -1.4960437947
 C         -4.8383816333        2.4438899066       -0.3450194835
 C         -4.6065312154        1.8535700860        0.8875972847
 C         -4.4221036748        0.4830418767        0.9744140843
 H         -4.2441500522       -0.0130782614        1.9143112887
 H         -4.5655374223        2.4554743723        1.7811869351
 H         -4.9783652872        3.5115124114       -0.4091188831
 H         -5.0747134408        2.1344870864       -2.4530134418
 H         -4.7376851037       -0.3338009224       -2.2865540472
 H         -2.2336382379       -2.0240062860       -1.2628878637
 H         -2.2876555866       -2.2787830708        2.3260183333
 H         -0.9642179370       -0.7676748319        3.7900560456
 H          0.3254243137        1.0879027516        2.7976038390
 C          0.5506196182        1.7835883833        0.2207667523
 H          0.6036801548        2.5782958819        0.9763065563
 C         -0.0331713004        2.3601735620       -1.0528152141
 C         -1.3220808821        3.1211012854       -0.9801635049
 C         -0.0382137591        3.8444210460       -1.2523403608
 H          0.1374636791        4.2298171500       -2.2455267659
 H          0.3820360045        4.4562297944       -0.4675291744
 H         -1.7754175102        3.2362555057       -0.0073726854
 H         -2.0332889674        3.0102401126       -1.7840343512
 H          0.1449690345        1.7458332897       -1.9260749293
 O          1.4803527546       -0.1720600076       -1.7508180563
