  62
        -98.94301241
 C          2.3361032986        0.8988919460        0.4188734197
 C          2.5321984223       -0.1854155408       -0.4705444699
 C          3.5449962234       -1.1702753359       -0.0659835820
 C          4.1895672553       -1.0359823630        1.1063795931
 C          5.2249898960       -1.9734384890        1.6651786431
 C          6.6443437092       -1.7200437102        1.1386939403
 C          6.8846843490       -2.1378861978       -0.3125665727
 H          7.9631624563       -2.1078843162       -0.4800320878
 H          6.5627308341       -3.1705716642       -0.4504776517
 C          6.1995056107       -1.2397928093       -1.3520358755
 H          5.9135376231       -0.2943261702       -0.8853433094
 H          6.9064500806       -1.0011507999       -2.1498772017
 C          4.9664744851       -1.8587187099       -2.0104701778
 H          5.2623248156       -2.7341012273       -2.5930592633
 H          4.5408426898       -1.1244250135       -2.6992925575
 C          3.8672918249       -2.2767265981       -1.0251006042
 H          2.9619199572       -2.4987945163       -1.5953945150
 H          4.1682014126       -3.1736860884       -0.4843887897
 H          7.3324621312       -2.2818166027        1.7744929162
 H          6.8757730168       -0.6587765847        1.2552213049
 H          4.9371975030       -3.0044846890        1.4579619207
 H          5.2273885740       -1.8232816796        2.7468983843
 O          3.9470002437       -0.0016774987        1.9534156229
 C          3.0453007455        0.9933227134        1.6221679777
 O          2.9597757702        1.9030578549        2.4709557481
 O          1.9068849501       -0.3529452762       -1.5530611319
 C          1.3743579740        2.0461380984        0.1479026172
 C         -0.0557383583        1.6738496588        0.4608245450
 C         -0.7760615832        2.3681001265        1.4257270124
 C         -2.0940048893        2.0405820740        1.6918681619
 C         -2.7184418210        1.0139615652        1.0063605987
 C         -2.0069740278        0.3130320623        0.0415118599
 C         -0.6878373567        0.6488392560       -0.2283088145
 H         -0.1375830021        0.0992646155       -0.9779423883
 N         -2.6214278040       -0.7487448344       -0.6452200323
 S         -4.1169845428       -0.4772510703       -1.3559633407
 O         -4.2181484845       -1.4550725271       -2.4172704648
 O         -4.2796175540        0.9061776925       -1.7395776894
 C         -5.2810149205       -0.8940608132       -0.0742627740
 C         -6.2478380338        0.0177728377        0.3016216712
 C         -7.1513219213       -0.3335806371        1.2926622671
 C         -7.0730289898       -1.5842161850        1.8858737978
 C         -6.0973452793       -2.4894992070        1.4953454980
 C         -5.1918465137       -2.1448211396        0.5047147564
 H         -4.4210675477       -2.8193907827        0.1707313094
 H         -6.0394254884       -3.4610322240        1.9592551497
 H         -7.7763855085       -1.8554361233        2.6572973132
 H         -7.9105856987        0.3685403412        1.5976577812
 H         -6.2665649219        0.9804561138       -0.1839604017
 H         -2.0000979708       -1.2188590076       -1.2881839511
 H         -3.7442421930        0.7537317140        1.2106536845
 H         -2.6410490878        2.5889065315        2.4435455356
 H         -0.2919549656        3.1627441354        1.9747020778
 H          1.6688744200        2.8448803291        0.8416882252
 C          1.4852912263        2.5812907968       -1.2677793094
 C          1.0429250618        3.9834666365       -1.5523450918
 C          2.5012592668        3.6377158687       -1.5753101223
 H          3.0108472507        3.6014434066       -2.5265294990
 H          3.1206445629        3.9865764534       -0.7615188995
 H          0.5458069986        4.1860508696       -2.4886970040
 H          0.6746261621        4.5698643739       -0.7241858242
 H          1.3028510294        1.8322606268       -2.0271822999
