  62
        -98.93635166
 C          2.4163433130        0.8583659425        0.2421947729
 C          3.6784731486        0.9509719110        0.8832566681
 C          4.8460577001        0.5941702970        0.0706625259
 C          4.6737370545        0.1925384844       -1.2015134379
 C          5.7650771693       -0.1799667031       -2.1681369128
 C          6.2496509494       -1.6302639381       -2.0361459644
 C          7.0931528166       -1.9240837804       -0.7948992971
 H          7.5444557576       -2.9076599742       -0.9396023243
 H          7.9056557144       -1.1997997595       -0.7289966207
 C          6.3011643234       -1.9336648308        0.5201265201
 H          5.2344060218       -2.0244421670        0.3017829633
 H          6.5817219219       -2.8103377260        1.1084329882
 C          6.5233832732       -0.7056172110        1.4030707996
 H          7.5624387446       -0.6788265785        1.7387764584
 H          5.8866941216       -0.7987662275        2.2866841920
 C          6.1955886734        0.6295922293        0.7221297406
 H          6.1752003696        1.4085845747        1.4883061549
 H          6.9646525394        0.8776042770       -0.0091575468
 H          5.3801577217       -2.2916331881       -2.0510338231
 H          6.8521021700       -1.8537860751       -2.9196140120
 H          5.3515206339       -0.0456263403       -3.1699655911
 H          6.6093050450        0.4993524048       -2.0461970707
 O          3.4462193099        0.0954051520       -1.7750009949
 C          2.2867485134        0.4009250236       -1.0701826814
 O          1.2432705131        0.2278015366       -1.7259178439
 H         -1.3597812482        1.3051747389       -0.0015564327
 C         -1.1001812505        0.3302885648        0.3809092599
 C          0.1516077513        0.1173841730        0.9343650597
 C          0.4649603186       -1.1574696442        1.3989093891
 C         -0.4446762913       -2.1918406632        1.2975289528
 C         -1.6898664604       -1.9781388972        0.7330829767
 C         -2.0148295967       -0.7107461931        0.2712084887
 N         -3.2728255167       -0.4914271707       -0.3166843532
 S         -4.6109878045       -1.1830136542        0.4462211572
 O         -4.5142323739       -0.9983396857        1.8771664788
 O         -4.7425730163       -2.5468192964       -0.0025634960
 C         -5.9384814327       -0.1970062559       -0.2184322788
 C         -6.4569893331       -0.5223076765       -1.4574654253
 C         -7.4726798794        0.2598646549       -1.9839043836
 C         -7.9495963519        1.3477517027       -1.2676733756
 C         -7.4199773903        1.6609007170       -0.0248221652
 C         -6.4031960212        0.8836586322        0.5071295793
 H         -5.9684697550        1.0837490988        1.4733915373
 H         -7.7950109257        2.5052203888        0.5309268738
 H         -8.7412475604        1.9537466530       -1.6792491922
 H         -7.8890400371        0.0184729250       -2.9485767254
 H         -6.0616777469       -1.3816006866       -1.9735745730
 H         -3.4294363357        0.4819214547       -0.5387028884
 H         -2.4121585179       -2.7742985092        0.6476974790
 H         -0.1847059101       -3.1755270584        1.6599590840
 H          1.4394560700       -1.3282838737        1.8371145676
 C          1.1884150988        1.2045767793        1.0651538286
 H          1.5518915963        1.1953414618        2.1067339580
 C          0.6395163614        2.6015597170        0.8178272250
 C          1.5431783399        3.7181705725        0.3901467567
 C          0.5077861396        3.1894598865       -0.5542897317
 H         -0.3525750975        3.8082132370       -0.7651997346
 H          0.8283686224        2.5878092672       -1.3899849823
 H          1.3944074538        4.6946168869        0.8260491424
 H          2.5790479437        3.4774776769        0.2003737233
 H         -0.1351314668        2.8600472613        1.5339905344
 O          3.8214862418        1.3161195461        2.0805682919
