  62
        -98.94517057
 C         -1.4996870215       -0.8300980045       -0.5286186162
 C         -2.6160453802       -0.9861787714        0.3343397293
 C         -3.2981209134        0.2414840551        0.7590575429
 C         -2.8204393804        1.4299520231        0.3479794073
 C         -3.4322572336        2.7615472710        0.6723134543
 C         -4.4512818811        3.1827731482       -0.3957262331
 C         -5.4658160477        2.0931453964       -0.7424995830
 H         -4.9440735926        1.2610530266       -1.2205595897
 H         -6.1520398034        2.5110374599       -1.4821171786
 C         -6.2654490842        1.5660366709        0.4571189362
 H         -7.3180777993        1.4989704236        0.1744084803
 H         -6.1969643857        2.2707405620        1.2866112348
 C         -5.8443863487        0.1762463372        0.9384509814
 H         -5.8196956316       -0.5131387090        0.0908443880
 H         -6.6051046444       -0.1874498836        1.6343223926
 C         -4.4927357360        0.0997518550        1.6600902978
 H         -4.4110072817       -0.8940029511        2.1103207816
 H         -4.4595434572        0.8416135424        2.4610866988
 H         -3.9084765590        3.4483707874       -1.3057345101
 H         -4.9753921786        4.0719309783       -0.0405475617
 H         -3.9127748244        2.7047281911        1.6473281522
 H         -2.6325140865        3.5031370497        0.7164641215
 O         -1.7409091523        1.5463143145       -0.4609141433
 C         -1.0496615179        0.4321702789       -0.9149570012
 O         -0.0867311000        0.7214879815       -1.6523416274
 H          1.3327572441       -0.5661301948       -0.2700183754
 C          1.3296255557       -1.4991936001        0.2673085202
 C          0.3180981227       -2.4214578777        0.0352207550
 C          0.3295847831       -3.6212338215        0.7356680828
 C          1.3235313116       -3.8835438991        1.6617484627
 C          2.3041730075       -2.9448258587        1.9217141713
 C          2.3020604615       -1.7393000692        1.2258745950
 N          3.2868089629       -0.7759818327        1.4815003274
 S          2.9678060373        0.8738330729        1.4902842794
 O          3.7530456900        1.3826848491        2.5985702405
 O          1.5520414625        1.1461478549        1.5382765539
 C          3.7178949751        1.4420853682       -0.0218937227
 C          5.0917425291        1.6000648564       -0.0199858289
 C          5.7239292011        2.0204214297       -1.1776427990
 C          4.9751308025        2.2752968071       -2.3171883538
 C          3.5990654641        2.1140977337       -2.3023088281
 C          2.9583833160        1.6936946096       -1.1454631818
 H          1.8875494228        1.5599651032       -1.1186623900
 H          3.0101328241        2.3099494963       -3.1843235899
 H          5.4650198491        2.6028753028       -3.2206976002
 H          6.7943209637        2.1485982503       -1.1891552592
 H          5.6317275293        1.4056291822        0.8917949667
 H          3.9205694014       -1.0193995654        2.2288478695
 H          3.0653473034       -3.1360880507        2.6630932949
 H          1.3234989972       -4.8188859237        2.2006593919
 H         -0.4587561018       -4.3399270789        0.5671564520
 C         -0.7904641945       -2.1091065805       -0.9433049013
 H         -1.5462448284       -2.9013115349       -0.8481662161
 C         -0.2721577828       -2.1126161447       -2.3669165042
 C         -0.0531445495       -3.4262907498       -3.0537556149
 C         -1.1822007439       -2.5370616144       -3.4786364817
 H         -1.1111356079       -2.0231296188       -4.4252523575
 H         -2.1886321450       -2.8298922013       -3.2164305602
 H         -0.2953722923       -4.3243930303       -2.5060870972
 H          0.7972348452       -3.5270874500       -3.7101296769
 H          0.4257245232       -1.3127163102       -2.5744305146
 O         -3.0279083435       -2.1120782643        0.7264086877
