  62
        -98.94072146
 C          2.6459646943        0.1004852180       -0.1818981140
 C          2.5437363316        1.2964915796       -0.9361007427
 C          1.9733900077        2.4555789366       -0.2439827600
 C          1.5841206256        2.3388106154        1.0382573901
 C          0.9426163796        3.4153650074        1.8698974156
 C         -0.5749783255        3.5109462423        1.6558456140
 C         -1.0021512529        4.1616708817        0.3388287244
 H         -2.0654277837        4.3938757232        0.4274308487
 H         -0.4711661463        5.1057957490        0.2094220591
 C         -0.7926308715        3.2734385247       -0.8958405814
 H         -0.6771946421        2.2353445412       -0.5724590568
 H         -1.6822228089        3.3169793689       -1.5299429043
 C          0.3975443535        3.6690007543       -1.7710950093
 H          0.2156260144        4.6522750813       -2.2113438754
 H          0.4790280733        2.9449563200       -2.5861454238
 C          1.7450661675        3.7065098300       -1.0387330149
 H          2.5384987155        3.7746012499       -1.7873938015
 H          1.7979030822        4.5813320370       -0.3912992752
 H         -0.9941938666        2.5026371458        1.7150796325
 H         -0.9872200075        4.0969700985        2.4808250768
 H          1.1289120825        3.1562467977        2.9143259056
 H          1.4086849750        4.3785907433        1.6594136323
 O          1.7380513087        1.1897077828        1.7438652484
 C          2.1973705864        0.0284875180        1.1403424684
 O          2.1767513402       -0.9667678309        1.8890698589
 O          2.8890272469        1.3820723717       -2.1465174280
 C          3.0335370207       -1.1671388245       -0.9304645209
 C          1.9126935032       -2.1544706202       -0.7223633012
 C          2.0546716383       -3.4123905895       -0.1549000279
 C          0.9388566743       -4.1858837512        0.1223189430
 C         -0.3361586828       -3.7180519280       -0.1409708671
 C         -0.4826379465       -2.4721103913       -0.7323458033
 C          0.6325655283       -1.7166915174       -1.0410706294
 H          0.5055111871       -0.7335396351       -1.4804709481
 N         -1.7896203061       -1.9332585549       -0.9310498931
 S         -2.2120821340       -1.0384629516        0.4512826090
 O         -1.3731795461        0.1349265480        0.5670660887
 O         -2.2240999816       -1.9426106542        1.5724686004
 C         -3.8800355675       -0.5513179475        0.0488846335
 C         -4.8622629333       -1.5230283949        0.0527442854
 C         -6.1566450431       -1.1671771860       -0.2899972603
 C         -6.4449802435        0.1465889280       -0.6299085353
 C         -5.4483088881        1.1102887587       -0.6287730235
 C         -4.1506511273        0.7603161207       -0.2883901352
 H         -3.3439118967        1.4760792245       -0.2697664901
 H         -5.6745932986        2.1310846579       -0.8917055566
 H         -7.4533175145        0.4215513085       -0.8963114535
 H         -6.9348774689       -1.9131474588       -0.2912709285
 H         -4.5903553348       -2.5276420133        0.3304090677
 H         -1.7847434025       -1.2759528178       -1.7031231848
 H         -1.2127531620       -4.2857384254        0.1244302868
 H          1.0649626572       -5.1551485734        0.5805427466
 H          3.0361079471       -3.7705306430        0.1108826484
 H          3.0303812099       -0.8615656815       -1.9909076088
 C          4.4198222969       -1.7192662511       -0.6508242310
 C          5.5271910091       -0.8136343867       -0.2030784124
 C          4.9850711232       -1.8523634239        0.7300604688
 H          5.6002232225       -2.7139910066        0.9457331218
 H          4.3682574320       -1.5369646178        1.5559982211
 H          6.5118436298       -0.9569612861       -0.6219949234
 H          5.2761926094        0.2202338278       -0.0138109888
 H          4.6923534305       -2.4944068182       -1.3609885195
