  62
        -98.93861345
 C          1.6439952203        1.3705335837        0.2784249111
 C          1.6196697564        0.3024915606       -0.6483344209
 C          2.9317988432       -0.1951783466       -1.1059189663
 C          4.0518525294        0.3848544047       -0.6414990851
 C          5.4764717853        0.0122607979       -0.9472151944
 C          6.0257189321       -0.9598719562        0.1102855506
 C          5.7551180207       -2.4371770501       -0.1715779404
 H          6.3735482336       -2.7617128023       -1.0110863437
 H          6.0750435855       -3.0005539421        0.7079720599
 C          4.2962760793       -2.7882620573       -0.4756155013
 H          4.1626977768       -3.8562450331       -0.2916658692
 H          3.6366306720       -2.2594345596        0.2153572199
 C          3.8904616707       -2.4795604194       -1.9245165830
 H          4.7862210792       -2.2724440308       -2.5098100069
 H          3.4294878158       -3.3655259585       -2.3665983525
 C          2.8854585406       -1.3310860828       -2.0915515959
 H          1.8678747798       -1.7272506405       -2.0087790835
 H          2.9786422189       -0.9208138443       -3.1028747112
 H          7.1063238759       -0.8227243967        0.1853219392
 H          5.5933557145       -0.6841684560        1.0756004256
 H          6.0547128701        0.9374865697       -0.9013584777
 H          5.5608694263       -0.4041608516       -1.9464216292
 O          4.0282862275        1.4114147930        0.2531162582
 C          2.8402364852        1.9159435525        0.7454398576
 O          2.9752572602        2.8362303846        1.5770323735
 O          0.5587806994       -0.2159619070       -1.0844339362
 C          0.3507751002        1.9429792094        0.8356286757
 C         -0.3270796512        0.8824556933        1.6694928335
 C          0.3156713787        0.4194568884        2.8156168531
 C         -0.2594502312       -0.5617926700        3.5989494926
 C         -1.4774387057       -1.1179300378        3.2441886014
 C         -2.1228685808       -0.6693665542        2.1002207406
 C         -1.5551913685        0.3391170592        1.3323981637
 H         -2.0787779411        0.6895664228        0.4613295461
 N         -3.3659902532       -1.1994517918        1.7035365459
 S         -3.4547665678       -1.8930561467        0.1697876965
 O         -4.6561225749       -2.7020156436        0.2186272850
 O         -2.2374334359       -2.5980654691       -0.1567378553
 C         -3.7297275100       -0.5276787735       -0.9364386541
 C         -2.7595585942       -0.1732562872       -1.8530645176
 C         -3.0071736607        0.8950468553       -2.7018342458
 C         -4.2075392531        1.5840017919       -2.6186238219
 C         -5.1708818809        1.2119997370       -1.6924778278
 C         -4.9333042539        0.1437859526       -0.8429558996
 H         -5.6555481546       -0.1846132298       -0.1142586649
 H         -6.1020059136        1.7518047367       -1.6301732331
 H         -4.3905534914        2.4171322037       -3.2792025735
 H         -2.2546618216        1.1870587698       -3.4175611820
 H         -1.8224926196       -0.7085046556       -1.8641637849
 H         -3.7691552377       -1.8349198208        2.3787823751
 H         -1.9217720540       -1.8957171750        3.8474925820
 H          0.2472391437       -0.9061603311        4.4882323673
 H          1.2747201555        0.8435890326        3.0819920877
 H          0.6491226753        2.7608052915        1.5067836654
 C         -0.5192333582        2.5035473683       -0.2688628051
 C         -1.6141786448        3.4716010812        0.0613251041
 C         -0.3842777514        3.9449094130       -0.6522450416
 H         -0.4612604748        4.2087562912       -1.6961031803
 H          0.3293013698        4.5424259375       -0.1034542079
 H         -2.5387452783        3.4085719460       -0.4924834300
 H         -1.7372546193        3.7503533267        1.0968261959
 H         -0.6955184408        1.7925140627       -1.0662947566
