  62
        -98.93352094
 C          1.8797786270        0.7315991148        0.7400521796
 C          2.0888117986        0.1958648910       -0.5538898315
 C          2.3493272417       -1.2502801497       -0.6108593569
 C          2.3099813899       -1.9752888862        0.5207452119
 C          2.6008114348       -3.4452639721        0.6098624086
 C          4.0885283982       -3.7025523131        0.8895059999
 C          5.0329479817       -2.9281159476       -0.0299222062
 H          4.9284665300       -1.8597278789        0.1722922378
 H          6.0528230187       -3.2092891707        0.2411337414
 C          4.8121347771       -3.1834838625       -1.5273096191
 H          5.7833848443       -3.3307095985       -2.0041082787
 H          4.2397827450       -4.1013203578       -1.6655125107
 C          4.1201155144       -2.0391279187       -2.2701879753
 H          4.2084612838       -2.2276817987       -3.3432902850
 H          4.6364112704       -1.0995937408       -2.0585742156
 C          2.6296156142       -1.8475126448       -1.9611430016
 H          2.2248017442       -1.1378292552       -2.6886573542
 H          2.1010710975       -2.7958210866       -2.0785077677
 H          4.3004743106       -3.4126487411        1.9212755528
 H          4.2774868755       -4.7730512798        0.7911754979
 H          2.0066994279       -3.8627034587        1.4247804267
 H          2.3053581929       -3.9236612174       -0.3219372939
 O          2.0492843543       -1.4335500179        1.7394773657
 C          1.8363089359       -0.0727639123        1.8776448796
 O          1.6275474117        0.2979235634        3.0530564041
 H         -0.7551735437        1.2094782138        1.1118727775
 C         -0.7225448317        1.9030041078        0.2820234986
 C          0.4622166317        2.5866244649        0.0122436612
 C          0.4686094082        3.4659016114       -1.0618703695
 C         -0.6655443169        3.6350015631       -1.8402003584
 C         -1.8227450646        2.9261135058       -1.5864964416
 C         -1.8465468410        2.0455076242       -0.5102570659
 N         -3.0061539282        1.3104289718       -0.2022646238
 S         -2.8104002642       -0.2532263910        0.4063718543
 O         -2.6119944729       -0.1727220132        1.8327524772
 O         -1.8036620293       -0.9673014045       -0.3473664634
 C         -4.4307954801       -0.9208104837        0.0726248970
 C         -4.6213479372       -1.7381585941       -1.0250906595
 C         -5.8944669022       -2.2189700550       -1.2898418544
 C         -6.9498726212       -1.8724873700       -0.4598242866
 C         -6.7430301178       -1.0511751082        0.6387916451
 C         -5.4726045527       -0.5690891362        0.9104937595
 H         -5.2601635817        0.0632579736        1.7566559063
 H         -7.5651523669       -0.7855839655        1.2835134644
 H         -7.9394221052       -2.2469296847       -0.6689380457
 H         -6.0570786835       -2.8602406124       -2.1410322314
 H         -3.7688546702       -1.9843829498       -1.6378070796
 H         -3.6869192028        1.3296270856       -0.9500164212
 H         -2.6945376061        3.0444384172       -2.2117265310
 H         -0.6342178466        4.3192551502       -2.6747066213
 H          1.3563578792        4.0065498145       -1.3335785980
 C          1.6037074091        2.2200704092        0.9312481557
 H          1.2105654232        2.3046527438        1.9587515784
 C          2.9232000298        2.9762101970        0.9372392254
 C          3.6903807969        3.3968810481       -0.2770690602
 C          3.0924303365        4.4333890223        0.6287639515
 H          3.7648104781        5.0000869016        1.2560182498
 H          2.2331480398        4.9936544460        0.2994953642
 H          3.2535717042        3.1995489559       -1.2421533210
 H          4.7628836838        3.2641643006       -0.2596612328
 H          3.5278858994        2.5996438508        1.7606253070
 O          2.0675793358        0.8802286682       -1.6083298036
