  62
        -98.94535513
 C          2.6443074908        1.0830278496        0.2900692881
 C          2.5765113939        0.3187608222       -0.9003723046
 C          3.2177808098       -1.0032982321       -0.8487959444
 C          3.8192244394       -1.4022303909        0.2866761101
 C          4.4540017812       -2.7459719895        0.4958653872
 C          3.4465768070       -3.7498293508        1.0740853562
 C          2.1140675950       -3.7915291384        0.3248509750
 H          1.4940009706       -4.5543465847        0.8015183390
 H          1.5951103428       -2.8378473439        0.4535304772
 C          2.2377032176       -4.0972737746       -1.1743568770
 H          1.4775587124       -4.8336641343       -1.4434102211
 H          3.2114705456       -4.5425607128       -1.3825490551
 C          2.0265152995       -2.8881408538       -2.0877855777
 H          1.9180198756       -3.2527921771       -3.1128685756
 H          1.0910764518       -2.3866662063       -1.8216719680
 C          3.1550822235       -1.8486584354       -2.0892592489
 H          4.1111107253       -2.3448946277       -2.2682997793
 H          2.9648340689       -1.1558366613       -2.9141017838
 H          3.9011365005       -4.7419345514        1.0622314816
 H          3.2455937513       -3.4803389026        2.1136220670
 H          5.2811356474       -2.6305405324        1.1982184714
 H          4.8422514170       -3.1103465415       -0.4529558116
 O          3.8700097248       -0.6365137896        1.4071171389
 C          3.2664966094        0.6107909690        1.4444530241
 O          3.3471547345        1.1889066640        2.5480666659
 O          2.0104560855        0.7167861095       -1.9510790811
 C          1.9672934171        2.4412868090        0.3545603632
 C          0.4916378956        2.2694899782        0.0838163053
 C         -0.2195883463        3.0267179481       -0.8365050858
 C         -1.5649895329        2.7812726613       -1.0537844697
 C         -2.2290776857        1.7875237481       -0.3588891696
 C         -1.5291524542        1.0310388436        0.5724106624
 C         -0.1845233131        1.2816995935        0.7901985937
 H          0.3616442768        0.6864482219        1.5135036633
 N         -2.1979473771        0.0198902865        1.2914855239
 S         -2.9281209959       -1.1931174467        0.3808000170
 O         -2.9853748470       -2.3420458292        1.2590496779
 O         -2.2582714848       -1.3835076710       -0.8846910941
 C         -4.5781285903       -0.5782774852        0.1203445211
 C         -5.3423918957       -0.2811327159        1.2318676945
 C         -6.6282883322        0.2017594978        1.0495300918
 C         -7.1259172120        0.3754595089       -0.2335761481
 C         -6.3472705318        0.0683376489       -1.3389247573
 C         -5.0592467101       -0.4138683463       -1.1635728701
 H         -4.4138425052       -0.6593415187       -1.9919602602
 H         -6.7358680878        0.2035684802       -2.3354670755
 H         -8.1267122144        0.7525470874       -0.3730039519
 H         -7.2367919301        0.4416920394        1.9064804087
 H         -4.9178527209       -0.4342577419        2.2099658837
 H         -1.6255651004       -0.3968937543        2.0124822226
 H         -3.2742425094        1.5891408024       -0.5317972989
 H         -2.1034018203        3.3715781405       -1.7793750384
 H          0.2819602881        3.7998222663       -1.3947585386
 H          2.0864253787        2.7923229014        1.3901539687
 C          2.6495509550        3.4217999669       -0.5750897567
 C          2.6155053628        4.8896274217       -0.2760006195
 C          3.8891869550        4.1191874680       -0.1046545157
 H          4.6900735438        4.2785772550       -0.8108326235
 H          4.2289051773        3.9030486157        0.8980836181
 H          2.5452691277        5.5827354456       -1.1005709148
 H          2.0923292869        5.2061707946        0.6135773480
 H          2.6156688573        3.1056794601       -1.6111150055
