  62
        -98.93839750
 C          2.6118644266       -0.1093594631        0.4938696539
 C          2.1865340127       -0.7048831039       -0.7175796136
 C          1.6913725620       -2.0837404131       -0.6147927099
 C          1.6472861318       -2.6876185396        0.5862562964
 C          1.1565610893       -4.0820562928        0.8699180487
 C         -0.3490085500       -4.3074914810        0.6270221784
 C         -0.6787115280       -4.9076302393       -0.7454515036
 H          0.1986111941       -5.4392161748       -1.1163795899
 H         -1.4689603407       -5.6511032591       -0.6234480114
 C         -1.1589825422       -3.9144292330       -1.8086364478
 H         -1.0977585660       -4.4081595406       -2.7813537014
 H         -2.2087184246       -3.6726440178       -1.6260246725
 C         -0.4001688179       -2.5887053004       -1.8785342644
 H         -0.7031250700       -1.9433568043       -1.0499760648
 H         -0.7097902057       -2.0622664785       -2.7843120035
 C          1.1356103100       -2.7182287192       -1.8561726736
 H          1.4359683455       -3.7632779160       -1.9233812431
 H          1.5635988571       -2.1775270955       -2.7030067986
 H         -0.6988205341       -4.9973518110        1.3967475812
 H         -0.8797482728       -3.3650281128        0.7688461394
 H          1.7352823925       -4.7912115532        0.2741601690
 H          1.3823383935       -4.2642887037        1.9224195374
 O          2.0817434308       -2.0844984526        1.7262520014
 C          2.5442939524       -0.7801490713        1.7131773171
 O          2.8689043564       -0.3367897153        2.8352847956
 H          0.4445905693        1.0429381036        0.9528198452
 C          0.6391647111        1.9034670886        0.3296858967
 C          1.9475674394        2.2215142729       -0.0113130753
 C          2.1727042534        3.3426605196       -0.8000851868
 C          1.1092638677        4.1027046879       -1.2556242891
 C         -0.1934860064        3.7527580670       -0.9523416988
 C         -0.4289838100        2.6400924264       -0.1532859256
 N         -1.7436886894        2.2517922592        0.1901187839
 S         -2.1706223799        0.6522406075       -0.1693361732
 O         -1.4628659772       -0.2519408355        0.7010313420
 O         -2.0394158787        0.4262076976       -1.5916932971
 C         -3.8966553376        0.6887550744        0.2771575344
 C         -4.2369645331        0.5751936701        1.6113180164
 C         -5.5740629221        0.6406411841        1.9697912244
 C         -6.5430840184        0.8187040239        0.9934118753
 C         -6.1866041573        0.9278244492       -0.3421709457
 C         -4.8508027086        0.8643461045       -0.7068331474
 H         -4.5265137716        0.9347576867       -1.7326702731
 H         -6.9420863459        1.0618563440       -1.0993910010
 H         -7.5827893629        0.8694505449        1.2755299298
 H         -5.8544041627        0.5525044533        3.0070451766
 H         -3.4500172529        0.4285103668        2.3329408592
 H         -2.4278087563        2.8597084995       -0.2450628712
 H         -1.0226240119        4.3319057162       -1.3309394995
 H          1.2974102773        4.9694461686       -1.8710383542
 H          3.1808741073        3.6159648661       -1.0660237123
 C          3.0594601792        1.3402841930        0.5086040765
 H          3.2320162141        1.5946386862        1.5654784400
 C          4.3590897841        1.5064175504       -0.2521463858
 C          5.3565267902        2.5435201637        0.1667088162
 C          5.6385829599        1.0920797198        0.4082716942
 H          6.3925823074        0.6034390194       -0.1901426320
 H          5.5722256916        0.7168098854        1.4193650560
 H          5.9232533434        3.0525442000       -0.5983299198
 H          5.1110401623        3.1578904803        1.0198110659
 H          4.2488658193        1.2940565401       -1.3094026802
 O          2.2217894105       -0.1156207235       -1.8308024172
