  62
        -98.93544113
 C          2.2828237696        1.2938421202        0.1517234395
 C          3.1984304796        0.5773475600        0.9588181695
 C          3.9350867394       -0.5344856501        0.3266131795
 C          3.6738019592       -0.8303798101       -0.9598972905
 C          4.2523077090       -1.9396399402       -1.7971886805
 C          3.6414049088       -3.3095777701       -1.4600238604
 C          3.4934662888       -3.5981911701        0.0318524296
 H          2.8729487690       -2.8228327299        0.4861820696
 H          2.9521813187       -4.5427391700        0.1344779696
 C          4.8040920188       -3.7223890303        0.8057819495
 H          4.5492441789       -4.0118495702        1.8285514195
 H          5.3992762687       -4.5286398304        0.3714506695
 C          5.6680221191       -2.4609474404        0.8701275794
 H          6.2043145990       -2.3057189805       -0.0620338006
 H          6.4264554591       -2.6264359505        1.6407828394
 C          4.9184274293       -1.1922843603        1.2649391894
 H          5.6534457894       -0.4170731904        1.5138713194
 H          4.3689818493       -1.3758487801        2.1954702995
 H          4.2531243786       -4.0847828102       -1.9244236904
 H          2.6442011288       -3.3533172500       -1.9060422304
 H          4.0180913790       -1.7024202802       -2.8373115905
 H          5.3332646190       -1.9606910104       -1.6964423006
 O          2.7526314093       -0.1400984300       -1.6896441405
 C          2.0266832895        0.9179419102       -1.1679882505
 O          1.2153828896        1.4167124403       -1.9688384104
 O          3.3890900897        0.8430154300        2.1771763795
 C          1.4912621799        2.4138896803        0.8049427495
 C          0.0226166198        2.2016708605        0.5370492396
 C         -0.7796410401        3.0974042307       -0.1554082904
 C         -2.1098578901        2.8002175509       -0.3981338703
 C         -2.6674578503        1.6149358610        0.0444001698
 C         -1.8732626304        0.7115912109        0.7388992098
 C         -0.5445763904        1.0143802406        0.9854011997
 H          0.0776154896        0.3041340706        1.5182700697
 N         -2.4322762306       -0.4987534590        1.1967286498
 S         -3.1252283708       -1.5031685690        0.0377666999
 O         -3.0552426210       -2.8330114289        0.6056777599
 O         -2.5132303009       -1.3256902591       -1.2588626202
 C         -4.8265291507       -0.9815129087       -0.0065387800
 C         -5.3789129307       -0.5373068586       -1.1916713300
 C         -6.7068883707       -0.1392917684       -1.2035250000
 C         -7.4538797806       -0.1929624082       -0.0366620399
 C         -6.8843583106       -0.6440774783        1.1449358101
 C         -5.5579856107       -1.0445633985        1.1634829600
 H         -5.0775920507       -1.4057203786        2.0573487300
 H         -7.4687828506       -0.6846205482        2.0499180601
 H         -8.4863905506        0.1185092419       -0.0487241499
 H         -7.1510186607        0.2110100817       -2.1213921299
 H         -4.7560463108       -0.5074607687       -2.0716810001
 H         -1.7960325607       -1.0358875091        1.7694015598
 H         -3.7007348104        1.3780797611       -0.1505804802
 H         -2.7202075700        3.5010962410       -0.9469477103
 H         -0.3560176399        4.0139759806       -0.5314526704
 H          1.6621991999        2.2682340603        1.8851467495
 C          1.9775455401        3.8172154902        0.4810190395
 C          3.4165616301        4.0733590000        0.1491065794
 C          2.3631893601        4.2456455701       -0.9018072206
 H          2.1126992302        5.2495426801       -1.2125972706
 H          2.2939038299        3.5144168801       -1.6912419505
 H          3.8897978003        4.9541067299        0.5564653693
 H          4.0720879300        3.2172187899        0.0787669094
 H          1.4890688002        4.5631487603        1.1006724195
