  62
        -98.93673742
 C          1.1767969669        0.7583937240        0.6845564566
 C          1.9213281398        0.5354516426       -0.4986511314
 C          2.8722741388       -0.5918059485       -0.4684049349
 C          2.9249873664       -1.3887486476        0.6111621426
 C          3.7737255699       -2.6151719678        0.8370332484
 C          5.2393930204       -2.5583883869        0.3855419965
 C          5.9026512546       -1.1783933423        0.5049046992
 H          5.2684069474       -0.5084729692        1.0879076863
 H          6.8463108101       -1.2844723390        1.0431174396
 C          6.2055750160       -0.5413906063       -0.8534390953
 H          6.6151419842       -1.3075143386       -1.5152993418
 H          6.9763182751        0.2212983874       -0.7192613621
 C          5.0185261966        0.1313028689       -1.5418317486
 H          4.7428461805        1.0397911759       -0.9993758364
 H          5.3386206757        0.4392855804       -2.5400241318
 C          3.7540167520       -0.7333601197       -1.6756012078
 H          3.1706550116       -0.3525466723       -2.5186568465
 H          4.0042560535       -1.7732844774       -1.8718036741
 H          5.3161526372       -2.9018780797       -0.6451447723
 H          5.7844539018       -3.2791023289        0.9975684623
 H          3.7291823758       -2.7963837817        1.9139432800
 H          3.2788207433       -3.4609958172        0.3498208424
 O          2.1244088226       -1.1905499014        1.6970497660
 C          1.2338003335       -0.1333523037        1.7564872307
 O          0.5499585669       -0.0999630860        2.8003951858
 H         -0.9804739433       -0.2763349655       -0.2161675303
 C         -1.3007160159        0.6050417525       -0.7500790161
 C         -0.7714808654        1.8405084444       -0.4007408896
 C         -1.1581442433        2.9558378004       -1.1314396463
 C         -2.0478700613        2.8240392666       -2.1844627966
 C         -2.5847713834        1.5938749633       -2.5172259884
 C         -2.1995619990        0.4704073570       -1.7935175642
 N         -2.7077745327       -0.8012332549       -2.0956215855
 S         -2.9040365004       -1.9359957823       -0.8872945194
 O         -1.6297457570       -2.4850502442       -0.4932896370
 O         -3.8501776340       -2.8809148570       -1.4423379651
 C         -3.6654479805       -1.0529603374        0.4639298463
 C         -4.9531296301       -0.5889844053        0.2724915238
 C         -5.5662052509        0.1319069985        1.2833421795
 C         -4.8825414544        0.3816956412        2.4639911936
 C         -3.5939959151       -0.0954033322        2.6438706209
 C         -2.9770142448       -0.8216117755        1.6368461460
 H         -1.9728520593       -1.1992894955        1.7555827665
 H         -3.0529347088        0.0949997618        3.5573287342
 H         -5.3557307380        0.9483073379        3.2502687973
 H         -6.5707574607        0.4987756133        1.1481932308
 H         -5.4558027809       -0.8129986441       -0.6542066419
 H         -3.4563925822       -0.8208267024       -2.7715726246
 H         -3.2809650939        1.4970168071       -3.3358950896
 H         -2.3330508976        3.6967229582       -2.7521038781
 H         -0.7502108761        3.9241362628       -0.8929261103
 C          0.1572728747        1.8789532549        0.7894101515
 H         -0.4483000474        1.6174267894        1.6741522837
 C          0.7461032154        3.2550916643        1.0649197391
 C          2.1295448510        3.4124830749        1.6207399567
 C          1.8309806465        3.8498519267        0.2198161866
 H          1.7956399633        4.9096615673        0.0129407202
 H          2.2049219114        3.2544512590       -0.5973942421
 H          2.7168356128        2.5161584531        1.7619590546
 H          2.2967873544        4.1667116501        2.3753040243
 H          0.0001710810        3.9436901732        1.4495867208
 O          1.8042902774        1.2289471671       -1.5413188615
