  62
        -98.93816593
 C         -0.8585890135       -1.2735492660        0.4205159828
 C         -1.3888313128       -0.1049178997        1.0142651666
 C         -2.2705355641        0.7035663525        0.1665039752
 C         -2.4730324376        0.3450274128       -1.1143122882
 C         -3.3010483140        1.0975883569       -2.1210828429
 C         -4.8016420348        0.7801255575       -2.0643881455
 C         -5.5416505583        1.3592937226       -0.8580361819
 H         -6.6098224782        1.2453761792       -1.0528442120
 H         -5.3353962292        2.4276981864       -0.7871483241
 C         -5.2062930697        0.6773261068        0.4755492524
 H         -4.7296942352       -0.2862007428        0.2808699346
 H         -6.1296357986        0.4737501364        1.0223847949
 C         -4.3049903329        1.4975001349        1.3981209716
 H         -4.1084505556        0.9069401034        2.2963913834
 H         -4.8243732586        2.4094092764        1.7005227170
 C         -2.9531748480        1.8869788291        0.7842694140
 H         -2.3099159440        2.2557080089        1.5864498303
 H         -3.0868409839        2.6790366759        0.0469118452
 H         -4.9288881697       -0.3046805297       -2.0855504713
 H         -5.2544494736        1.1855444964       -2.9722173562
 H         -2.9214558779        0.8129611837       -3.1050692926
 H         -3.1479125382        2.1697898242       -1.9918711884
 O         -1.9167009378       -0.7667212022       -1.6604245601
 C         -1.0996830540       -1.6044205189       -0.9140004365
 O         -0.6692277954       -2.5878261438       -1.5434953434
 O         -1.1281477673        0.2515486381        2.1957362519
 C          0.0919981274       -2.1364339634        1.2444901505
 C          1.3727534897       -2.2565389537        0.4545402236
 C          1.9976506159       -3.4019540282       -0.0184229610
 C          3.1360843013       -3.3095458225       -0.8042364211
 C          3.6630833620       -2.0854777387       -1.1654514335
 C          3.0502517108       -0.9291837540       -0.6958939949
 C          1.9500485611       -1.0284571844        0.1340218549
 H          1.4861748818       -0.1222543769        0.4972488995
 N          3.5249836615        0.3467290040       -1.0393974265
 S          2.4118178532        1.5696405661       -1.3144417717
 O          1.1705736151        1.0709194438       -1.8601957129
 O          3.1270250936        2.5222969931       -2.1404938739
 C          2.1528997374        2.2987249049        0.2880838286
 C          3.2463365836        2.5031898571        1.1067143516
 C          3.0542446282        3.1041674612        2.3399926903
 C          1.7815521234        3.4951775555        2.7278687815
 C          0.6962157685        3.2893890066        1.8910775128
 C          0.8804782505        2.6845852123        0.6580274473
 H          0.0590667718        2.4860018661       -0.0137542517
 H         -0.2941043542        3.5877256221        2.1953922486
 H          1.6315412663        3.9611890130        3.6889186420
 H          3.8953598192        3.2645486431        2.9950572637
 H          4.2187961958        2.1855300461        0.7697186956
 H          4.2689335947        0.3549509611       -1.7223109240
 H          4.5259742075       -2.0203625174       -1.8105218218
 H          3.6019900281       -4.2144212712       -1.1646761240
 H          1.6009245345       -4.3796680832        0.1845690711
 H          0.3244069415       -1.5170572694        2.1278994259
 C         -0.6575769003       -3.3456368822        1.7791594696
 C         -0.8914586758       -4.6229929882        1.0353999960
 C         -0.0258645699       -4.6165346569        2.2617160442
 H         -0.4265872615       -5.0631235034        3.1598649113
 H          1.0398489710       -4.7361267129        2.1592197600
 H         -1.8726004487       -5.0706775595        1.1072037801
 H         -0.4512338456       -4.7251080045        0.0570148522
 H         -1.5018270290       -2.9939962235        2.3690889951
