  62
        -98.93588853
 C         -2.3761426006       -0.7275498672        0.2287169267
 C         -2.4900223332        0.6864449118        0.2600099781
 C         -3.7077912922        1.2609564642       -0.3256274971
 C         -4.6270704363        0.4375299790       -0.8611445116
 C         -5.9383476059        0.8758650038       -1.4449266717
 C         -7.0463648038        0.8785564032       -0.3825330208
 C         -6.6611387844        1.6000452718        0.9088784662
 H         -7.5278959090        1.5657525548        1.5723979300
 H         -5.8577961700        1.0465767998        1.4006017531
 C         -6.2233799226        3.0584694373        0.7144541781
 H         -6.5589646196        3.4200047157       -0.2581209869
 H         -6.7082284417        3.6744001341        1.4747152177
 C         -4.7171450239        3.2913164982        0.8480123724
 H         -4.5430643126        4.3688722098        0.9110569804
 H         -4.3577773035        2.8479807011        1.7802843765
 C         -3.8539918323        2.7565320938       -0.3019342280
 H         -2.8426605378        3.1535199766       -0.1717235206
 H         -4.2447812705        3.1197683738       -1.2548387455
 H         -7.9345324250        1.3459010291       -0.8114257920
 H         -7.2916271033       -0.1569110182       -0.1358634276
 H         -6.2105342709        0.1791628914       -2.2394157278
 H         -5.8248524309        1.8712272829       -1.8699188391
 O         -4.4808859593       -0.9093540161       -0.8870386980
 C         -3.3603414620       -1.5327108479       -0.3474377437
 O         -3.3843398761       -2.7714671241       -0.4540847746
 O         -1.6103123924        1.4360780523        0.7667101211
 C         -1.1224315630       -1.3203629361        0.8461221330
 C         -0.0335289251       -1.4909290881       -0.1831245044
 C         -0.2779583990       -2.1269153528       -1.3966349570
 C          0.7362894440       -2.2747507517       -2.3246644977
 C          2.0062651754       -1.7913086915       -2.0643610369
 C          2.2634016064       -1.1596462347       -0.8527777022
 C          1.2428392678       -1.0133946092        0.0772688725
 H          1.4485452162       -0.5008514912        1.0049606732
 N          3.5589239080       -0.7068904293       -0.5507345545
 S          3.7575683352        0.7047497128        0.3550476916
 O          3.4943789607        0.4068872970        1.7400931906
 O          2.9985541476        1.7855726325       -0.2327061847
 C          5.5046391747        0.9746192424        0.1219204016
 C          5.9327708353        1.8956120114       -0.8152020212
 C          7.2940467499        2.0751552789       -1.0055483630
 C          8.1986834712        1.3324889604       -0.2618716253
 C          7.7537427701        0.4123075804        0.6759197159
 C          6.3943403624        0.2290012040        0.8722803191
 H          6.0021737001       -0.4668073783        1.5954068841
 H          8.4602436777       -0.1609955661        1.2541371188
 H          9.2572991645        1.4740110185       -0.4120066698
 H          7.6427627400        2.7923235859       -1.7310581263
 H          5.1926224510        2.4560935028       -1.3636164989
 H          4.1637769807       -0.7013478486       -1.3613823007
 H          2.7947296389       -1.9047259752       -2.7928518581
 H          0.5340566732       -2.7682072837       -3.2634650944
 H         -1.2677819954       -2.5067346081       -1.5998948140
 H         -0.7733503245       -0.5559380971        1.5600255491
 C         -1.3837053578       -2.5931858458        1.6407073339
 C         -0.9060587071       -3.9466397249        1.2178338557
 C         -0.2571683955       -3.2561729290        2.3771784225
 H         -0.4390614394       -3.6287001717        3.3738971276
 H          0.7338260704       -2.8520012684        2.2302650230
 H         -1.5573373997       -4.7857561289        1.4079841793
 H         -0.3519099448       -4.0270706289        0.2964045995
 H         -2.3431722778       -2.5613001289        2.1472828723
