  62
        -98.94207177
 C          0.6619656005        1.2769790262        0.6436997037
 C          1.2337945799        0.8891829812       -0.5890758774
 C          2.2759017541       -0.1538866906       -0.5317451036
 C          2.5730073088       -0.7244764163        0.6500776069
 C          3.5936416961       -1.7791322263        1.0251807502
 C          4.6448929278       -2.2380201651        0.0183684708
 C          5.7212176489       -1.1973171880       -0.2930615479
 H          6.3637920054       -1.0921214278        0.5848411470
 H          6.3381573640       -1.5735678600       -1.1118663648
 C          5.2093472897        0.1948577902       -0.6545265567
 H          6.0780403562        0.8420229353       -0.8036874795
 H          4.6424157707        0.6069397970        0.1827210353
 C          4.3534310772        0.2685393556       -1.9168490824
 H          4.9046922219       -0.1533643846       -2.7595579737
 H          4.1721979440        1.3251796611       -2.1315856806
 C          2.9864608810       -0.4295144010       -1.8259468275
 H          2.3469928205       -0.0212246509       -2.6137454730
 H          3.0809723652       -1.4974682617       -1.9991302150
 H          5.1448712853       -3.1039418203        0.4605133947
 H          4.1693702647       -2.5811143631       -0.8951282731
 H          4.1001592532       -1.3981996343        1.9182457621
 H          3.0172390175       -2.6498096344        1.3519278006
 O          1.8946682145       -0.4046990959        1.7937293796
 C          0.9613818645        0.6145535658        1.8312124085
 O          0.4770262476        0.8301025897        2.9617928644
 O          0.9097350132        1.4013844591       -1.6910450570
 C         -0.3108481027        2.4417769040        0.6978928671
 C         -1.4897410896        2.1712459945       -0.2024699586
 C         -1.8940321156        3.0207073093       -1.2233247098
 C         -2.9725173839        2.6855016859       -2.0234819276
 C         -3.6673647020        1.5079641806       -1.8218289628
 C         -3.2810320776        0.6596058724       -0.7884785487
 C         -2.2025914445        0.9974917133        0.0124639667
 H         -1.9100922461        0.3432156154        0.8221695994
 N         -3.9817379598       -0.5276968198       -0.5529250880
 S         -3.4583653288       -1.7290481815        0.4568820643
 O         -4.3395930652       -2.8403762882        0.1625677612
 O         -3.4648137849       -1.2778642833        1.8269451095
 C         -1.8013363141       -2.1847813133       -0.0241270777
 C         -1.0275223566       -2.8101482916        0.9326696112
 C          0.2257474611       -3.2828925540        0.5828077954
 C          0.6887461860       -3.1120500316       -0.7119343221
 C         -0.0925978992       -2.4684820729       -1.6578111429
 C         -1.3541482666       -2.0069268470       -1.3174860218
 H         -1.9754453228       -1.5070914423       -2.0425633068
 H          0.2743891851       -2.3236013736       -2.6609778998
 H          1.6627020143       -3.4861641308       -0.9837872625
 H          0.8302713012       -3.7836255447        1.3223826536
 H         -1.4201966347       -2.9092898168        1.9325358025
 H         -4.6273420940       -0.8318302046       -1.2640041786
 H         -4.5034365512        1.2436575671       -2.4505262400
 H         -3.2725737206        3.3490476627       -2.8200986179
 H         -1.3598804535        3.9388855087       -1.4014403781
 H         -0.6779301771        2.4830686541        1.7339972145
 C          0.4160107381        3.7330826610        0.3828487867
 C         -0.0993333898        5.0358957770        0.9136142151
 C          1.1515903770        4.4370995834        1.4814568424
 H          2.0982332701        4.9034515739        1.2529647559
 H          1.1095654464        3.9969812302        2.4675613232
 H         -0.0094199892        5.9175990922        0.2973334560
 H         -0.9929564632        5.0095264692        1.5187947726
 H          0.8762832555        3.7246940424       -0.5984614216
