  62
        -98.94520483
 C         -2.2566151647       -0.7451959422       -0.0246653911
 C         -3.2480869581       -0.6517921461        0.9851572825
 C         -4.1054632336        0.5366952456        0.9386977213
 C         -3.8893577699        1.4775441687        0.0016470510
 C         -4.6565987054        2.7621825034       -0.1567177587
 C         -5.9614036311        2.6170644065       -0.9521534446
 C         -7.0950585787        1.9000845742       -0.2177313328
 H         -7.2442659009        2.3637983506        0.7578036747
 H         -8.0052392472        2.0625187896       -0.7983939034
 C         -6.8823547815        0.3896118968       -0.0455181673
 H         -7.8001159586       -0.1399288737       -0.3107915473
 H         -6.1063551160        0.0503638986       -0.7355378908
 C         -6.5050654794       -0.0396874641        1.3722865333
 H         -7.3316173346        0.1761052880        2.0527669927
 H         -6.3426644287       -1.1204097152        1.3710814563
 C         -5.2366997226        0.6294209498        1.9178881662
 H         -4.9335351502        0.1025477401        2.8258446546
 H         -5.4382167604        1.6706591951        2.1683793908
 H         -6.3007937883        3.6239723652       -1.2059555599
 H         -5.7441212824        2.0946783462       -1.8867278257
 H         -4.8725740195        3.1831212330        0.8257263720
 H         -4.0001992627        3.4510654724       -0.6930415673
 O         -2.9022651696        1.3709343820       -0.9266186203
 C         -2.0749800300        0.2573374751       -0.9773388750
 O         -1.2433866426        0.2915589664       -1.9058596680
 O         -3.4072630145       -1.5215594753        1.8817843342
 C         -1.3487227012       -1.9647901361       -0.0178412744
 C          0.0341680894       -1.5175910288        0.3853904935
 C          0.3325489449       -1.3631626175        1.7365879531
 C          1.5667526693       -0.8871398583        2.1365327109
 C          2.5257643426       -0.5441973541        1.1988188019
 C          2.2307325151       -0.6767598919       -0.1507338351
 C          0.9990873914       -1.1791324304       -0.5501624090
 H          0.7793837764       -1.2641942426       -1.6025372609
 N          3.1917253202       -0.3170302728       -1.1117700121
 S          3.9744653597        1.1573301330       -0.9327208916
 O          3.1615813099        2.1195779804       -0.2249008053
 O          4.3970738792        1.5269214312       -2.2663568354
 C          5.4161979602        0.7470591904        0.0312799338
 C          6.2233484652       -0.2831914970       -0.4104676206
 C          7.3533887132       -0.6093366985        0.3220638121
 C          7.6582160798        0.0982535886        1.4754029889
 C          6.8403357496        1.1325049451        1.9035868748
 C          5.7074409253        1.4628839617        1.1759065567
 H          5.0387481289        2.2549435077        1.4739096165
 H          7.0785857815        1.6821046512        2.8000706226
 H          8.5382689304       -0.1576833404        2.0439792826
 H          7.9915398752       -1.4132653289       -0.0076470525
 H          5.9526771719       -0.8059108861       -1.3124817016
 H          2.8652655371       -0.4286138508       -2.0613424869
 H          3.4856507666       -0.1595868884        1.5024298284
 H          1.7853489170       -0.7772490724        3.1878601535
 H         -0.4243931050       -1.6079734883        2.4685742251
 H         -1.7424574988       -2.6122295072        0.7771482090
 C         -1.3930961574       -2.7220177007       -1.3282443083
 C         -0.8456025482       -4.1159291022       -1.3860483033
 C         -2.3241724771       -3.8874231237       -1.4680101860
 H         -2.8192531382       -4.0391618545       -2.4155419771
 H         -2.9305153187       -4.1476816490       -0.6128775980
 H         -0.3231771143       -4.4286626897       -2.2771167800
 H         -0.4464568436       -4.5300965991       -0.4727096913
 H         -1.2640363755       -2.0886118051       -2.1974269308
