  62
        -98.94677388
 C          0.3472441301        1.9357851221        0.5417448544
 C          1.0342508647        1.9556810737       -0.6959224509
 C          2.4066289140        1.4367623394       -0.6680890139
 C          2.9325558783        0.9935584015        0.4883976801
 C          4.3472166919        0.5206458243        0.6894714366
 C          4.5809789388       -0.9537147772        0.3370844640
 C          4.5370396141       -1.2844506464       -1.1547217721
 H          5.2216271162       -0.6276179845       -1.6922686716
 H          4.9091294877       -2.3042159985       -1.2682966803
 C          3.1379346579       -1.1961213018       -1.7804208686
 H          2.3821423494       -1.2002835620       -0.9914839718
 H          2.9572464842       -2.0785751571       -2.3974678881
 C          2.9210484146        0.0291740894       -2.6687995419
 H          1.8880956713        0.0155008058       -3.0264655428
 H          3.5798275927       -0.0259430819       -3.5383632626
 C          3.1587442972        1.3705395263       -1.9624232801
 H          4.2245850635        1.5255472301       -1.7959468473
 H          2.7838505707        2.1699419809       -2.6061438077
 H          5.5669402839       -1.2268906785        0.7200930700
 H          3.8365828623       -1.5527471698        0.8620736449
 H          5.0228399871        1.1484787647        0.1074867865
 H          4.5722354517        0.6600886986        1.7492175314
 O          2.2253224685        0.9608968690        1.6502499646
 C          0.9149969420        1.4095614233        1.7008269317
 O          0.3736917009        1.2911399859        2.8200914448
 O          0.5361028440        2.3979680835       -1.7633779915
 C         -1.0654724074        2.4826352580        0.6234498929
 C         -1.9674986124        1.7495581773       -0.3394627792
 C         -2.8465294106        2.3880263496       -1.2041375645
 C         -3.6574989540        1.6484784364       -2.0474875825
 C         -3.6310967846        0.2667101213       -2.0251054016
 C         -2.7622591419       -0.3828138055       -1.1547755926
 C         -1.9304103364        0.3605496791       -0.3347522612
 H         -1.2496692846       -0.1467602516        0.3334746536
 N         -2.7111151645       -1.7836776559       -1.0991402026
 S         -2.5463684205       -2.5629198523        0.3742426775
 O         -3.2084539109       -3.8365815503        0.1818649567
 O         -3.0333001961       -1.7507027173        1.4632995543
 C         -0.8009541498       -2.8703636976        0.5356637691
 C         -0.2245720184       -3.7600816883       -0.3506618431
 C          1.1171043974       -4.0720977334       -0.2119543794
 C          1.8576984265       -3.4945239924        0.8085129748
 C          1.2687163638       -2.5941681451        1.6828517923
 C         -0.0745404288       -2.2779460260        1.5484630785
 H         -0.5595272566       -1.5825193738        2.2177102545
 H          1.8399405096       -2.1292775858        2.4720028387
 H          2.8988525429       -3.7522472301        0.9243275517
 H          1.5820304659       -4.7665386373       -0.8926583237
 H         -0.8404147060       -4.2013203304       -1.1164219583
 H         -3.3754199387       -2.2545335579       -1.6961744731
 H         -4.2742400683       -0.3085893071       -2.6737770503
 H         -4.3288298511        2.1562827993       -2.7234017467
 H         -2.8937980848        3.4643049373       -1.2235683332
 H         -1.4210205352        2.2662447026        1.6424550421
 C         -1.0499701311        3.9838985262        0.4204154494
 C         -2.0960074285        4.8449155450        1.0601564058
 C         -0.6895409658        4.8653308093        1.5768161595
 H         -0.0825469203        5.7386616419        1.3910885002
 H         -0.4822165974        4.3827037907        2.5212235164
 H         -2.4543496341        5.7091960285        0.5214920444
 H         -2.8484859998        4.3550435882        1.6598743460
 H         -0.6792781608        4.2667274135       -0.5581464941
