  62
        -98.93572437
 C         -2.3049573056       -0.7152015382        0.8734613586
 C         -3.4875909772       -1.0083985556        0.1490914102
 C         -4.5793461439       -0.0287631905        0.2820962196
 C         -4.4103279168        1.0565704914        1.0570422014
 C         -5.4154655467        2.1582196467        1.2260452768
 C         -5.1961534495        3.2739063021        0.1946540575
 C         -5.0524143060        2.7688313382       -1.2411060998
 H         -4.9337368542        3.6446423547       -1.8828111509
 H         -4.1324057434        2.1850140380       -1.3223025657
 C         -6.2345987441        1.9256526400       -1.7392036579
 H         -7.1046448507        2.0965381070       -1.1042956032
 H         -6.4985693935        2.2543466760       -2.7465527898
 C         -5.9530830758        0.4242460831       -1.8200195050
 H         -5.0281954930        0.2549024631       -2.3769052952
 H         -6.7648050747       -0.0440113494       -2.3829300586
 C         -5.8468403962       -0.3079680048       -0.4764160148
 H         -6.7206008216       -0.0806000585        0.1373009257
 H         -5.8405459326       -1.3819932365       -0.6836462293
 H         -6.0348905431        3.9697769986        0.2557883747
 H         -4.2847997257        3.8152446000        0.4595717403
 H         -6.4177783646        1.7467408245        1.1241954272
 H         -5.3028585255        2.5747299768        2.2284316235
 O         -3.2661824382        1.2983210619        1.7487552964
 C         -2.1930927293        0.4280776935        1.6693963079
 O         -1.2083317546        0.7704486621        2.3570592239
 H          1.5586740372       -1.0004542892        0.9079393006
 C          1.1598330677       -0.9781110501       -0.0951360681
 C         -0.1818000129       -1.2547305046       -0.3136923353
 C         -0.6767377241       -1.1962785763       -1.6134493924
 C          0.1577618729       -0.8649382755       -2.6646172546
 C          1.4937394601       -0.5814801162       -2.4417387657
 C          1.9995851909       -0.6411625886       -1.1483174020
 N          3.3639164114       -0.4009548665       -0.9069038380
 S          3.8159417457        0.4210150467        0.4984027302
 O          3.7441962514       -0.4901184636        1.6123398800
 O          3.0680184942        1.6528337688        0.6158929232
 C          5.5239680057        0.7639040453        0.1177110491
 C          6.4468888971       -0.2556432308        0.2569577052
 C          7.7722653203       -0.0074275849       -0.0621306272
 C          8.1508808855        1.2487219035       -0.5126465001
 C          7.2139536255        2.2623818856       -0.6452452972
 C          5.8860626613        2.0203885052       -0.3291360652
 H          5.1243593389        2.7795538256       -0.4080034397
 H          7.5117524806        3.2387089519       -0.9922504374
 H          9.1832636365        1.4397555835       -0.7594369930
 H          8.5038923005       -0.7922595189        0.0423830065
 H          6.1073416359       -1.2116913353        0.6196142636
 H          3.8319324428       -0.0080143456       -1.7132172327
 H          2.1420383758       -0.3181172219       -3.2637477043
 H         -0.2373231104       -0.8215497767       -3.6684996908
 H         -1.7185269527       -1.4181368813       -1.7874614198
 C         -1.0748463091       -1.6079817509        0.8483359873
 H         -0.5225881814       -1.3606248507        1.7697972146
 C         -1.4117399940       -3.0927537063        0.9106358720
 C         -1.1499308701       -4.0526671607       -0.2069703475
 C         -0.3028729161       -4.0968772754        1.0266338479
 H         -0.4206966879       -4.9222261104        1.7123769838
 H          0.7082925377       -3.7230421199        0.9548568117
 H         -1.8745874591       -4.8357256931       -0.3692094757
 H         -0.7080566645       -3.6736010823       -1.1145336292
 H         -2.2998331514       -3.2799417424        1.5055249211
 O         -3.6452334116       -2.0238658918       -0.5746948579
