  62
        -98.93042426
 C         -1.8053181725       -1.5680213134        0.5022705883
 C         -1.6716923996       -0.3397219351        1.1961546811
 C         -2.7574246306        0.6456215630        1.0512794243
 C         -3.8164541594        0.3224167584        0.2856865360
 C         -5.0065716780        1.1819988910       -0.0420417541
 C         -4.6910373389        2.2369609612       -1.1200803078
 C         -3.3037258397        2.8696437562       -1.0231074009
 H         -2.5538250464        2.0759750706       -1.0070161657
 H         -3.1393660483        3.4522151321       -1.9332239631
 C         -3.0937483996        3.8012984765        0.1689019519
 H         -2.0668023559        4.1737433259        0.1255282000
 H         -3.7610670293        4.6605787776        0.0677515148
 C         -3.3247286803        3.1854549475        1.5484845223
 H         -4.3851044964        3.0177696484        1.7169964254
 H         -3.0045311119        3.9217921060        2.2918818140
 C         -2.5303828947        1.9136801508        1.8381035284
 H         -2.6795714079        1.6488640922        2.8927056333
 H         -1.4602564043        2.1316431356        1.7450433770
 H         -5.4537159071        3.0158430805       -1.0787135689
 H         -4.7602741030        1.7480647673       -2.0944462325
 H         -5.7837376215        0.5164430133       -0.4233660017
 H         -5.3836511239        1.6453216901        0.8652773690
 O         -3.9068514619       -0.8694132906       -0.3630429385
 C         -2.9117419403       -1.8351006400       -0.3040534983
 O         -3.1509213760       -2.8406369587       -0.9948642796
 O         -0.6663315965       -0.0729314626        1.9110720130
 C         -0.6330219479       -2.5252743236        0.6356720555
 C          0.4904355595       -2.0106350764       -0.2282724633
 C          0.2628977321       -1.6660757060       -1.5574435336
 C          1.2730196528       -1.1231188577       -2.3296899321
 C          2.5242098620       -0.8936452236       -1.7833798652
 C          2.7604486711       -1.2335405521       -0.4593951163
 C          1.7529488690       -1.8022161764        0.3065724092
 H          1.9435567308       -2.0336878754        1.3462237680
 N          4.0328436822       -0.9173000882        0.0983142835
 S          3.9981909605        0.5667620950        0.9195953183
 O          5.3623034074        1.0480008368        0.9396389756
 O          3.3996930790        0.3873417755        2.2256992203
 C          2.9935201728        1.6073745750       -0.1135485706
 C          3.6079937962        2.3084852294       -1.1326944161
 C          2.8313879958        3.0958870710       -1.9668749439
 C          1.4602215993        3.1628331861       -1.7707601244
 C          0.8616763335        2.4539771576       -0.7407243913
 C          1.6306735130        1.6672110686        0.1018742415
 H          1.1860417469        1.1009998744        0.9072398173
 H         -0.2052964253        2.5001149088       -0.5878582410
 H          0.8520988108        3.7704863263       -2.4221878710
 H          3.2941418405        3.6506472263       -2.7670528572
 H          4.6768621775        2.2249213349       -1.2432853733
 H          4.3374070358       -1.6116303403        0.7697006664
 H          3.3158790343       -0.4490206640       -2.3636074453
 H          1.0810053463       -0.8629577764       -3.3590241794
 H         -0.7239952298       -1.8193499167       -1.9710284452
 H         -0.3021155331       -2.4357161891        1.6839737943
 C         -0.9647652221       -3.9871793442        0.3914733480
 C         -0.5478772188       -4.7326345125       -0.8369486228
 C          0.1235046237       -5.0171329399        0.4711299468
 H         -0.0829236097       -5.9513024877        0.9708674086
 H          1.1354263016       -4.6617561684        0.5994642426
 H         -1.2398319096       -5.4572649317       -1.2372405674
 H          0.0138193278       -4.2049647306       -1.5915194349
 H         -1.9248005553       -4.2613719180        0.8143135637
