  62
        -98.94559888
 C          2.3401955687        0.1356069745        0.1237808757
 C          1.5490778505       -0.4455585509       -0.8915255076
 C          1.3437374062       -1.9029309900       -0.8206288712
 C          1.8318396238       -2.5839394227        0.2326961897
 C          1.8030604799       -4.0601803220        0.5696742046
 C          0.9094675651       -5.0227416150       -0.2066739006
 C         -0.5870424220       -4.8343958882        0.0356872007
 H         -1.1277250909       -5.5201523152       -0.6208654593
 H         -0.8114063715       -5.1145731201        1.0680894027
 C         -1.1166833518       -3.4193990675       -0.1841466191
 H         -2.1947391375       -3.4318126147        0.0046710966
 H         -0.6837006617       -2.7338029480        0.5479224169
 C         -0.8974156763       -2.8551622071       -1.5858091718
 H         -1.4818760356       -1.9346523751       -1.6557256711
 H         -1.2846887228       -3.5563531399       -2.3281658873
 C          0.5591615000       -2.5146818131       -1.9472564835
 H          1.0815569410       -3.3874177870       -2.3343950584
 H          0.5396440660       -1.7646434534       -2.7435006025
 H          1.1326845794       -4.9728670357       -1.2681848034
 H          1.1729694487       -6.0299579873        0.1276331038
 H          2.8407221306       -4.4024522405        0.4841632715
 H          1.5477602926       -4.1150640249        1.6331060096
 O          2.5399880286       -1.9670440921        1.2247608955
 C          2.8127110349       -0.6126146528        1.1984457735
 O          3.4760672934       -0.1989159559        2.1729724537
 H          0.5276969692        1.0759101522        1.6658604180
 C          0.3198925606        1.9223761149        1.0276154163
 C          1.2951019684        2.3747561279        0.1482286544
 C          1.0084629298        3.4761168319       -0.6483801667
 C         -0.2343708976        4.0831308579       -0.5823682623
 C         -1.2211824999        3.5927457962        0.2536863543
 C         -0.9394913479        2.4973256001        1.0618976371
 N         -1.9131897599        1.9336757734        1.9128788965
 S         -2.3448700822        0.3387512246        1.6206607738
 O         -3.4001406922        0.0578697680        2.5708301783
 O         -1.1831389988       -0.5081446544        1.6894880821
 C         -3.0324887623        0.3671787895       -0.0257310440
 C         -4.4068146114        0.3271570775       -0.1669485040
 C         -4.9569108242        0.4182361153       -1.4349404296
 C         -4.1271753060        0.5612650648       -2.5372442406
 C         -2.7512792016        0.6064206612       -2.3783748500
 C         -2.1923083478        0.5077284174       -1.1124564619
 H         -1.1225181116        0.5324308857       -0.9755873172
 H         -2.0951876664        0.7149671495       -3.2272833469
 H         -4.5533470262        0.6370018824       -3.5251380225
 H         -6.0272027365        0.3811103001       -1.5589583125
 H         -5.0106125750        0.2174562343        0.7194349861
 H         -2.7518794933        2.4921030293        1.9978723552
 H         -2.1997715810        4.0478344962        0.2817120913
 H         -0.4441428963        4.9376557669       -1.2073047498
 H          1.7554136552        3.8546678115       -1.3267335078
 C          2.6084257590        1.6305372007        0.1162440552
 H          3.1482507220        1.8462767419        1.0503369625
 C          3.4878467056        2.0060257043       -1.0581712996
 C          4.4180305578        3.1768967964       -0.9619846800
 C          4.9654452620        1.7820928313       -0.9540746924
 H          5.4966240215        1.4286564216       -1.8249698723
 H          5.3402079534        1.3818836559       -0.0228456481
 H          4.5787844248        3.7823173975       -1.8412225303
 H          4.4321272866        3.7299801635       -0.0349452741
 H          3.0168538464        1.8001662344       -2.0122961132
 O          1.0416427451        0.2216890894       -1.8321792099
