  62
        -98.94578000
 C         -2.1928389031       -1.1692947565        0.1978159229
 C         -1.8589471715       -0.2486503802       -0.8254591070
 C         -2.6309273699        1.0041864091       -0.8332636058
 C         -3.5826407845        1.2002162153        0.0975622507
 C         -4.4174804671        2.4413490409        0.2236665029
 C         -3.7635555267        3.4622965811        1.1650132778
 C         -2.2905231302        3.7299177542        0.8557318717
 H         -1.9401822900        4.4860461862        1.5619535211
 H         -1.7151231851        2.8213644293        1.0502730987
 C         -2.0198676394        4.2040914834       -0.5790956693
 H         -2.9439584070        4.5700098058       -1.0279074042
 H         -1.3218173026        5.0432209468       -0.5435263885
 C         -1.3960129690        3.1445788335       -1.4892115261
 H         -0.5189693415        2.7176061633       -0.9968200781
 H         -1.0492199815        3.6424464112       -2.3985106913
 C         -2.3226436790        1.9992904802       -1.9171967602
 H         -3.2441792938        2.4109203500       -2.3337206867
 H         -1.8143715633        1.4335977536       -2.7035437176
 H         -4.3244816327        4.3966541298        1.1055729729
 H         -3.8367943877        3.0875541323        2.1887875629
 H         -4.5583308026        2.8796761532       -0.7624092369
 H         -5.3911160199        2.1598905965        0.6284577875
 O         -3.8659124437        0.2964104779        1.0706216384
 C         -3.1782474637       -0.9051306652        1.1479628243
 O         -3.5275051574       -1.6380397606        2.0962559163
 H         -0.1783001437       -0.6205606886        1.6554823852
 C          0.5148352181       -1.2883084812        1.1575766234
 C          0.0160877398       -2.3272739851        0.3826410212
 C          0.9212151143       -3.1744085103       -0.2450914648
 C          2.2842822627       -2.9820424610       -0.0986046570
 C          2.7759851748       -1.9398330234        0.6648938745
 C          1.8794812987       -1.0824102034        1.2904108999
 N          2.3686549980        0.0011715991        2.0390564191
 S          3.6253773369        0.8919126469        1.3804455030
 O          4.8822117403        0.2794137214        1.7354774839
 O          3.4290427571        2.2396847237        1.8691564737
 C          3.4107805316        0.8261401191       -0.3900496949
 C          2.1714243429        1.1237474983       -0.9194220339
 C          1.9889638484        1.0502564779       -2.2898431484
 C          3.0508083271        0.6929683214       -3.1063853767
 C          4.2940222404        0.4097072680       -2.5624247217
 C          4.4774788266        0.4703478674       -1.1903361408
 H          5.4216265115        0.2415092775       -0.7230788396
 H          5.1173516755        0.1330341444       -3.2011198858
 H          2.9038151977        0.6316183683       -4.1730969737
 H          1.0125670961        1.2442872398       -2.7030654458
 H          1.3574801979        1.3919010989       -0.2640939744
 H          1.6490464959        0.6048561489        2.4081984828
 H          3.8342303197       -1.7753173307        0.7892391587
 H          2.9741029705       -3.6505879915       -0.5900574586
 H          0.5582301648       -3.9874809356       -0.8516657839
 C         -1.4792267015       -2.5061807624        0.2749998883
 H         -1.8295400534       -2.9840493441        1.2023617153
 C         -1.8905094026       -3.3704059621       -0.9010547666
 C         -2.0029523559       -4.8570244696       -0.7514541857
 C         -3.2399261039       -4.0209597809       -0.8779778399
 H         -3.8068542226       -4.0686987575       -1.7955847345
 H         -3.8479257370       -3.8664025198        0.0020319393
 H         -1.7231933644       -5.4825055008       -1.5858031229
 H         -1.7787037995       -5.2825774487        0.2151131944
 H         -1.5424213252       -2.9739460255       -1.8478875801
 O         -0.9681547461       -0.4579870817       -1.6869005157
