  62
        -98.93821284
 C          1.7706860444        0.2085248672       -0.8885176683
 C          2.9315234975       -0.5962760996       -1.0062978111
 C          4.2073799354        0.0731488810       -0.6965208974
 C          4.2118420421        1.3682999165       -0.3365887950
 C          5.4313197902        2.1469122047        0.0621568160
 C          5.6665860976        2.0728615600        1.5773146187
 C          5.6124913718        0.6532711705        2.1419482585
 H          5.8220955815        0.7205136707        3.2117389620
 H          4.5958897455        0.2669348346        2.0379178314
 C          6.5965262071       -0.3274815968        1.4890078714
 H          7.3763411202        0.2248011532        0.9633461954
 H          7.0845789904       -0.9087139690        2.2742899899
 C          5.9513581896       -1.3291612089        0.5294635448
 H          5.1092555675       -1.8197764923        1.0241687469
 H          6.6892603383       -2.1020565343        0.2980657939
 C          5.4581793961       -0.7534612715       -0.8040653336
 H          6.2591787112       -0.1815367019       -1.2767536693
 H          5.2055937194       -1.5954684566       -1.4553226220
 H          6.6387616297        2.5174597925        1.7979540377
 H          4.8988020656        2.6686595879        2.0762648776
 H          6.2961998378        1.7556514047       -0.4700198295
 H          5.2816620890        3.1896396559       -0.2228581143
 O          3.0797210743        2.1123014913       -0.2478776232
 C          1.8418580951        1.5523645176       -0.5096624972
 O          0.8866840991        2.3450327568       -0.3830870517
 H         -2.1087002250        0.0749215330       -0.1917354951
 C         -1.5564757325       -0.6365868449        0.4022127269
 C         -0.2451008105       -0.9374839988        0.0660475074
 C          0.4612132125       -1.8325955668        0.8625969040
 C         -0.1400095110       -2.4114829829        1.9654324554
 C         -1.4589310480       -2.1325024134        2.2784514672
 C         -2.1743837991       -1.2421950196        1.4871180253
 N         -3.5133962831       -0.9364128841        1.7660439452
 S         -4.6006865516       -0.7920770042        0.4981368912
 O         -5.8890087580       -1.0817294783        1.0895491454
 O         -4.2117966044       -1.6140011084       -0.6229964967
 C         -4.5412993337        0.9308576921        0.0573444492
 C         -4.2514281995        1.2985225385       -1.2414351343
 C         -4.2191546070        2.6456271388       -1.5654856850
 C         -4.4781871960        3.5959306239       -0.5901563401
 C         -4.7726861453        3.2100330943        0.7089309789
 C         -4.8058547537        1.8650711939        1.0390901613
 H         -5.0345748442        1.5258930189        2.0356102523
 H         -4.9734877379        3.9532760960        1.4636468780
 H         -4.4492347912        4.6435252226       -0.8452106553
 H         -3.9884423942        2.9470784648       -2.5747464601
 H         -4.0514779677        0.5279562711       -1.9699376860
 H         -3.9103749770       -1.4363592899        2.5481491116
 H         -1.9315897773       -2.6000180157        3.1289985341
 H          0.4194458933       -3.1016606470        2.5791122844
 H          1.4790053346       -2.0798155366        0.6021940144
 C          0.3669880925       -0.3063800406       -1.1578150845
 H         -0.2272109100        0.5919487524       -1.3907321169
 C          0.2837009385       -1.2200093752       -2.3739559426
 C          0.0956987456       -2.7013358302       -2.2892042468
 C         -1.0264282268       -1.8348096026       -2.7718520508
 H         -1.2843024192       -1.8608498750       -3.8202375248
 H         -1.8746238833       -1.7032029385       -2.1145982989
 H          0.6282127323       -3.3151180287       -2.9995570227
 H          0.0082030195       -3.1491815009       -1.3118983170
 H          0.9152658801       -0.8654449007       -3.1828332272
 O          2.9289127769       -1.8068025991       -1.3449397172
