  62
        -98.95135151
 C         -2.3368412599       -0.0914893206        0.1129186900
 C         -1.6142576000        0.4752990296       -0.9633450300
 C         -1.4561201599        1.9341064596       -0.9310607798
 C         -1.9080291198        2.6284620894        0.1289562403
 C         -1.8277408198        4.1197023394        0.3128951305
 C         -0.4723501297        4.6082967093        0.8415177204
 C          0.6604455202        4.6161149794       -0.1852922997
 H          0.3277283801        5.1296959995       -1.0884884096
 H          1.4753266103        5.2026598993        0.2438726103
 C          1.1980403301        3.2250473194       -0.5488152099
 H          0.9135373702        2.5054139293        0.2228467000
 H          2.2911591001        3.2514172294       -0.5613015600
 C          0.7458711200        2.7047703796       -1.9124591600
 H          1.1398909599        3.3534247797       -2.6986781099
 H          1.1740454499        1.7100628496       -2.0496689801
 C         -0.7745008900        2.6026258397       -2.0886771698
 H         -1.1982566600        3.5956102097       -2.2421316097
 H         -0.9722788401        1.9978511998       -2.9775179199
 H         -0.1834956796        3.9863302192        1.6926538203
 H         -0.6123393496        5.6291028392        1.2056265006
 H         -2.0542089398        4.6202437995       -0.6293481494
 H         -2.5980446997        4.3833688593        1.0410192206
 O         -2.5327452197        2.0366167693        1.1816909803
 C         -2.7654482298        0.6722283393        1.1976096601
 O         -3.3618684597        0.2625152792        2.2163655801
 H         -0.5216099198       -0.9990978008        1.7041483297
 C         -0.3060928299       -1.8543441407        1.0802346995
 C         -1.2740409100       -2.3240834306        0.2017823396
 C         -0.9772614001       -3.4341969605       -0.5787998406
 C          0.2666636999       -4.0367349406       -0.4945223308
 C          1.2448476700       -3.5327359007        0.3435765092
 C          0.9540699701       -2.4262962808        1.1332572593
 N          1.9223124002       -1.8419613809        1.9775696793
 S          2.3559668102       -0.2601676009        1.6221953795
 O          3.4313048503        0.0499267590        2.5396991994
 O          1.1987698503        0.5938634191        1.6851083497
 C          3.0047654201       -0.3557385407       -0.0370376606
 C          4.3756894501       -0.3413282507       -0.2117487307
 C          4.8938358199       -0.4976855006       -1.4867901508
 C          4.0363276898       -0.6808021204       -2.5615661107
 C          2.6641731998       -0.6995620604       -2.3689845706
 C          2.1374691500       -0.5343987505       -1.0964049305
 H          1.0712477400       -0.5373736805       -0.9328436504
 H          1.9861825398       -0.8397114602       -3.1959617205
 H          4.4377251297       -0.8090070703       -3.5543742308
 H          5.9612004899       -0.4808696506       -1.6375649209
 H          5.0019101701       -0.2003556908        0.6544236292
 H          2.7608110302       -2.3980800510        2.0793485692
 H          2.2240368000       -3.9852846407        0.3867231490
 H          0.4839916298       -4.8988160405       -1.1062556709
 H         -1.7176430801       -3.8239867104       -1.2578205506
 C         -2.5917659899       -1.5888235906        0.1569026698
 H         -3.1170889399       -1.7772438707        1.1050934598
 C         -3.4837754801       -2.0112776104       -0.9914972002
 C         -4.3827545301       -3.2017059604       -0.8493612602
 C         -4.9642361901       -1.8208644704       -0.8643708500
 H         -5.5201469901       -1.5019144502       -1.7331225299
 H         -5.3322758999       -1.4081897805        0.0640907501
 H         -4.3655591600       -3.7321818305        0.0907458697
 H         -4.5446596502       -3.8322703003       -1.7105243203
 H         -3.0362314902       -1.8176385503       -1.9592538602
 O         -1.1359306701       -0.1999736003       -1.9127384502
