  62
        -98.93522659
 C         -1.9238782214       -1.0001559462        0.2606698603
 C         -2.3456852309        0.0167620690        1.1488420831
 C         -2.6243957768        1.3457228299        0.5738460400
 C         -2.4150643679        1.5340848770       -0.7420261212
 C         -2.6686020229        2.7778408855       -1.5511890016
 C         -4.1627522772        2.9994245006       -1.8455939202
 C         -5.1015663941        2.7235571869       -0.6733199182
 H         -6.1267427151        2.7817678258       -1.0481916840
 H         -4.9431563385        1.7026933199       -0.3205653490
 C         -4.9792306888        3.6906195896        0.5016240297
 H         -5.2079488009        4.7017222957        0.1574786114
 H         -5.7379430610        3.4088910202        1.2360606665
 C         -3.6217334879        3.7175620186        1.2055180003
 H         -3.7460682114        4.2843000774        2.1330266661
 H         -2.8858003170        4.2537717982        0.6123707097
 C         -3.0796131163        2.3486886969        1.6067600390
 H         -3.8288566399        1.8309775298        2.2167331127
 H         -2.2181939137        2.4962535518        2.2708304919
 H         -4.4459277704        2.3291006856       -2.6605630090
 H         -4.2981201363        4.0259046806       -2.1897905131
 H         -2.2353509971        3.6381225438       -1.0490497392
 H         -2.1400239814        2.6475926767       -2.4981378378
 O         -1.9645510578        0.5383127534       -1.5554340893
 C         -1.6828857649       -0.7326998298       -1.0876131340
 O         -1.2496484340       -1.5087765778       -1.9604393053
 O         -2.4937145352       -0.1755238687        2.3877173650
 C         -1.5913143081       -2.3602815847        0.8484299848
 C         -0.2162701867       -2.7755724647        0.3885159123
 C          0.0694475324       -3.9872828504       -0.2250438126
 C          1.3572134864       -4.2673709783       -0.6494674304
 C          2.3755945909       -3.3478390078       -0.4851042379
 C          2.1010162520       -2.1352366374        0.1389046640
 C          0.8194522775       -1.8701543103        0.5870772529
 H          0.6140062789       -0.9222174731        1.0653768176
 N          3.1157992544       -1.1813143253        0.3425947114
 S          2.7007433431        0.4531026051        0.2430423481
 O          2.1394607628        0.8672992379        1.5061546471
 O          1.8960434381        0.7071609832       -0.9309680836
 C          4.3234086596        1.1693185976        0.0529059817
 C          5.1181768792        1.3116274232        1.1748750837
 C          6.3944003908        1.8318529277        1.0300103699
 C          6.8526612654        2.1981173028       -0.2269950118
 C          6.0431290416        2.0511638439       -1.3432650220
 C          4.7659559112        1.5298793270       -1.2055494642
 H          4.0976459276        1.4027528692       -2.0423523098
 H          6.4002703786        2.3393118270       -2.3187901474
 H          7.8461232070        2.6030954761       -0.3371914595
 H          7.0255507887        1.9496742275        1.8959399333
 H          4.7142977809        1.0209278331        2.1305385128
 H          3.9443126929       -1.3772673296       -0.2036093771
 H          3.3729955801       -3.5597267043       -0.8393653826
 H          1.5655199533       -5.2093646938       -1.1338862102
 H         -0.7190039710       -4.7011499206       -0.3975041754
 H         -1.5399181688       -2.1771791635        1.9358657618
 C         -2.6575394944       -3.4245059923        0.6392328413
 C         -4.0860541279       -3.0478548025        0.3864290400
 C         -3.2770022543       -3.6876130562       -0.6995165437
 H         -3.5007548499       -4.7100150041       -0.9671590379
 H         -2.9491069716       -3.0786319750       -1.5269121446
 H         -4.8619616546       -3.6272635337        0.8638858720
 H         -4.3161912305       -1.9957099935        0.2987870256
 H         -2.4979895733       -4.2873443839        1.2787610927
