  62
        -98.93625993
 C          2.3403783700        0.9771708893        0.4045679703
 C          2.5674251197       -0.1596643109       -0.4066271395
 C          3.6022553996       -1.1005394210        0.0605725206
 C          4.2408096097       -0.8704957009        1.2196306105
 C          5.2862090696       -1.7182038909        1.8994485606
 C          6.4102018694       -2.2922574013        1.0241274307
 C          6.8060587595       -1.4264978616       -0.1808752295
 H          6.3646687897       -0.4324896315       -0.0904710997
 H          7.8904909095       -1.3015218418       -0.1857801096
 C          6.4005319793       -2.0459223117       -1.5207433094
 H          7.0110718493       -1.6028852020       -2.3113285695
 H          6.6260428791       -3.1143264318       -1.4946385792
 C          4.9375829593       -1.8538212616       -1.9190458593
 H          4.7551787191       -2.4410570817       -2.8224380192
 H          4.7585825895       -0.8064532216       -2.1772914495
 C          3.9033850693       -2.2533643812       -0.8537816192
 H          2.9667654292       -2.4895394011       -1.3660280991
 H          4.2268953192       -3.1313876711       -0.3001725690
 H          6.1261216392       -3.2820953813        0.6691958809
 H          7.2767339394       -2.4287236313        1.6731856506
 H          4.7776187694       -2.5394390107        2.4124791108
 H          5.7152051297       -1.0735727309        2.6701204805
 O          3.9716333599        0.2221528993        1.9871570304
 C          3.0429331201        1.1679807494        1.5990057102
 O          2.9328399503        2.1268128996        2.3887999701
 O          1.9456094596       -0.4111278609       -1.4746216794
 C          1.3496594201        2.0778119094        0.0565088802
 C         -0.0699674499        1.6901427298        0.3970512903
 C         -0.7982203497        2.4134284201        1.3342066102
 C         -2.1083172898        2.0737474704        1.6226724504
 C         -2.7169731800        1.0069834603        0.9861351906
 C         -1.9969771802        0.2759208700        0.0503735407
 C         -0.6851514702        0.6222464798       -0.2404811094
 H         -0.1267846903        0.0481102695       -0.9653815494
 N         -2.5986434704       -0.8242130300       -0.5872393791
 S         -4.0805062404       -0.5809069398       -1.3384852390
 O         -4.1748606507       -1.6176499400       -2.3429400188
 O         -4.2215219702        0.7794699601       -1.8045770692
 C         -5.2710844604       -0.9099876794       -0.0555780589
 C         -6.2290491102        0.0359137108        0.2529195410
 C         -7.1533241902       -0.2457115688        1.2470145511
 C         -7.1040818404       -1.4620970787        1.9104472413
 C         -6.1375147306       -2.4027403189        1.5865022115
 C         -5.2114610606       -2.1279396793        0.5929716613
 H         -4.4470467807       -2.8320448395        0.3092540814
 H         -6.1023981107       -3.3475369988        2.1047238516
 H         -7.8234197704       -1.6787467684        2.6843523514
 H         -7.9057644301        0.4839004414        1.4998641310
 H         -6.2243884001        0.9701660507       -0.2855755892
 H         -1.9672536306       -1.3195383302       -1.2010786590
 H         -3.7369531300        0.7379223206        1.2072336307
 H         -2.6616906696        2.6449163106        2.3523593503
 H         -0.3260037596        3.2408444201        1.8438021901
 H          1.6233262803        2.9285975795        0.6948430100
 C          1.4446022101        2.5200280692       -1.3920031899
 C          0.9445173003        3.8801571592       -1.7701004001
 C          2.4160477003        3.5949563389       -1.7709035302
 H          2.9281080702        3.5158538587       -2.7182312102
 H          3.0187822904        4.0241676290       -0.9834730003
 H          0.4407002603        3.9982020991       -2.7172727201
 H          0.5502433805        4.5046833094       -0.9827665302
 H          1.2951268899        1.7149941991       -2.0994932698
