  62
        -98.94591732
 C         -1.2919920846       -1.4228164037        0.6191362304
 C         -2.3661830545       -1.3137880840       -0.2984883847
 C         -3.3648633003       -0.2748533933        0.0016664977
 C         -3.2155331578        0.4975397808        1.0919544666
 C         -4.1372633021        1.6142333062        1.4883114222
 C         -3.6997259377        2.9579188182        0.8878257399
 C         -3.3861402285        2.8966601800       -0.6068968514
 H         -3.1133432824        3.9060629882       -0.9218282606
 H         -2.5139216515        2.2586278232       -0.7655868274
 C         -4.5450616102        2.3909938948       -1.4769606332
 H         -5.4833752050        2.4651245998       -0.9258654825
 H         -4.6327811492        3.0363396886       -2.3534478851
 C         -4.3726004925        0.9612313466       -1.9922267843
 H         -5.1262802833        0.7852223827       -2.7643407636
 H         -3.3916056720        0.8555043491       -2.4619987747
 C         -4.5267237729       -0.1469174710       -0.9431569755
 H         -5.4577572554       -0.0040675149       -0.3907074251
 H         -4.5859906205       -1.1011861293       -1.4744649187
 H         -2.8064732193        3.3011607054        1.4149268677
 H         -4.4932708168        3.6862335782        1.0650212734
 H         -5.1466943635        1.3724558556        1.1604612087
 H         -4.1302281996        1.6933115886        2.5769776117
 O         -2.1722485481        0.3636264088        1.9513486837
 C         -1.1955513954       -0.5948114523        1.7406145711
 O         -0.3051504651       -0.6125503657        2.6153398735
 H          2.2138591263       -1.2545310592        0.8342654676
 C          1.9810946819       -1.3538549089       -0.2154292500
 C          0.7945009655       -1.9587305941       -0.6078198849
 C          0.5231762201       -2.0801210700       -1.9667569131
 C          1.4243101289       -1.6080137366       -2.9034073987
 C          2.6015625632       -0.9970345218       -2.5089368932
 C          2.8800543515       -0.8658632454       -1.1537197061
 N          4.0702780600       -0.2564102989       -0.7234652169
 S          4.0364011832        0.8158765195        0.5605635494
 O          5.2595878260        1.5763219733        0.4189883511
 O          3.8781279007        0.1010673466        1.8002840433
 C          2.6337246048        1.8670145051        0.2356202659
 C          1.4519157023        1.6902474406        0.9238737826
 C          0.3677445404        2.4927634717        0.6037880482
 C          0.4798429244        3.4497590205       -0.3915272513
 C          1.6775453559        3.6183607660       -1.0705910882
 C          2.7640504546        2.8191649024       -0.7578119448
 H          3.7156180376        2.9286653600       -1.2524323159
 H          1.7639668241        4.3673612389       -1.8410941663
 H         -0.3700153540        4.0677571158       -0.6350043944
 H         -0.5584051185        2.3529249693        1.1391080132
 H          1.3802602677        0.9389568919        1.6950562387
 H          4.6515898401        0.0939064657       -1.4713106007
 H          3.3022649798       -0.6269571462       -3.2417459127
 H          1.2038284888       -1.7102582097       -3.9551086156
 H         -0.4077880245       -2.5234318226       -2.2812879026
 C         -0.1705501275       -2.4379309215        0.4507737324
 H          0.3679915651       -2.4449977311        1.4083883593
 C         -0.6769106172       -3.8406141556        0.1798443643
 C          0.2477235782       -4.9977045260        0.4032413931
 C         -0.9058175370       -4.7690795073        1.3324319273
 H         -1.7461736671       -5.4457445229        1.2901515418
 H         -0.6956379955       -4.3971232027        2.3251667051
 H          0.2019397887       -5.8338874952       -0.2773383248
 H          1.2412160499       -4.7796260497        0.7664141437
 H         -1.3715553401       -3.9013420831       -0.6468546779
 O         -2.5110836944       -2.0406044029       -1.3149494513
