  62
        -98.94300760
 C          0.8952956829        1.7500320119        0.0682037593
 C          1.7709859608        1.1580450635        1.0101880896
 C          2.9991824313        0.5712863815        0.4612625370
 C          3.2005023226        0.5708550848       -0.8694197556
 C          4.4319706859        0.0771726660       -1.5807190856
 C          4.4839922337       -1.4405044246       -1.7997060905
 C          4.7712394149       -2.2679695222       -0.5467619696
 H          5.0150596067       -3.2787371775       -0.8792914898
 H          5.6529691243       -1.8704822374       -0.0432810472
 C          3.5975760164       -2.3429784384        0.4387770363
 H          2.6770068431       -2.0484934600       -0.0696732712
 H          3.4711476417       -3.3756248410        0.7690910206
 C          3.7594522243       -1.4880971934        1.6948135293
 H          2.8471677425       -1.5744295856        2.2904178469
 H          4.5905546065       -1.8668055521        2.2942043835
 C          4.0010517986        0.0003009131        1.4200794968
 H          5.0119033811        0.1519297566        1.0406617725
 H          3.8981342342        0.5429778760        2.3633498423
 H          3.5390982308       -1.7630934475       -2.2421122624
 H          5.2758992474       -1.6344094104       -2.5268266010
 H          4.4378105765        0.5664832982       -2.5571156044
 H          5.3186885005        0.3949509805       -1.0302582388
 O          2.2935884128        1.0784321542       -1.7465998661
 C          1.1421027759        1.7147119057       -1.3037814655
 O          0.4409810059        2.1951073391       -2.2137961951
 O          1.5513660709        1.1462060078        2.2514471131
 C         -0.3009338137        2.5337794661        0.5765038869
 C         -1.5681744253        2.1808843368       -0.1595454864
 C         -2.3732896310        3.1341101108       -0.7703224691
 C         -3.5377786478        2.7614267602       -1.4168669174
 C         -3.9375446352        1.4395796522       -1.4417432170
 C         -3.1470449879        0.4771348019       -0.8231479551
 C         -1.9669061743        0.8491442512       -0.1993947005
 H         -1.3523534345        0.0951320408        0.2738581762
 N         -3.5383446343       -0.8704207199       -0.8354788922
 S         -3.3336223892       -1.8287605474        0.5185395805
 O         -4.3858863449       -2.8197439230        0.4231215681
 O         -3.3058876442       -1.0475375705        1.7320243834
 C         -1.7797082678       -2.6512756190        0.2564766402
 C         -0.8575404384       -2.7228566589        1.2804870070
 C          0.3086239131       -3.4448532906        1.0819560482
 C          0.5325033412       -4.0745387942       -0.1324630893
 C         -0.3993511541       -3.9841498559       -1.1552298614
 C         -1.5705165632       -3.2708572398       -0.9598730084
 H         -2.3239287041       -3.1885175000       -1.7253477434
 H         -0.2184553373       -4.4714665002       -2.0998189448
 H          1.4390995751       -4.6388603591       -0.2829383482
 H          1.0355106069       -3.5115822294        1.8755765369
 H         -1.0664025761       -2.2121903731        2.2077038554
 H         -4.4291228758       -1.0431721603       -1.2786807742
 H         -4.8521458517        1.1480660380       -1.9358156067
 H         -4.1469361277        3.5120818568       -1.8972367683
 H         -2.0872286697        4.1723284482       -0.7486548633
 H         -0.4260931072        2.2342749933        1.6281252619
 C          0.0318397246        4.0131465943        0.5346358518
 C         -0.6156703470        4.9647578736        1.4947511854
 C          0.8310511075        4.6085183425        1.6531996912
 H          1.5761737650        5.3527822532        1.4146158931
 H          1.1147150848        3.9511483723        2.4617842343
 H         -0.8628244423        5.9577106773        1.1505539005
 H         -1.3196726230        4.5553974061        2.2034153131
 H          0.2463139619        4.3632332350       -0.4697932259
