  62
        -98.94487282
 C         -1.4172065899       -0.7787459601        0.3271565505
 C         -2.4209023497       -0.8021843905       -0.6727461296
 C         -3.3109036197        0.3672825796       -0.7094759902
 C         -3.1063251597        1.4002474399        0.1260508594
 C         -3.9103385497        2.6706795699        0.1816057588
 C         -5.1884708898        2.5618581103        1.0246758587
 C         -6.3150421997        1.7394979602        0.3976253889
 H         -6.5083560496        2.1005317798       -0.6129997313
 H         -7.2144141698        1.9270397004        0.9876828187
 C         -6.0534495098        0.2271611001        0.3650651095
 H         -6.9450789299       -0.3039613397        0.7060647196
 H         -5.2495766599       -0.0188461996        1.0628485397
 C         -5.6971705197       -0.3249384604       -1.0153295402
 H         -6.5492748696       -0.2059603006       -1.6882532204
 H         -5.4948104797       -1.3942641204       -0.9143200198
 C         -4.4695625795        0.3318007593       -1.6599553103
 H         -4.7160857994        1.3372580591       -1.9996837807
 H         -4.1732592495       -0.2681476711       -2.5236376000
 H         -5.5575506898        3.5768568604        1.1893325683
 H         -4.9295496499        2.1409549507        1.9991280889
 H         -4.1661981895        2.9883099096       -0.8295236413
 H         -3.2664978297        3.4286186001        0.6328975686
 O         -2.0945236599        1.4111544502        1.0347104596
 C         -1.2591947199        0.3168856302        1.1808543901
 O         -0.4173375700        0.4405748805        2.0943109502
 O         -2.5882677797       -1.7341879608       -1.5014057793
 C         -0.4300044600       -1.9159979701        0.5435391311
 C          0.7150952402       -1.8035937605       -0.4345488988
 C          0.5361498203       -2.0153667111       -1.7979125387
 C          1.6021085105       -1.8888162615       -2.6690925086
 C          2.8574561304       -1.5357520813       -2.2049500586
 C          3.0455406903       -1.3175364808       -0.8455825687
 C          1.9775433001       -1.4635297204        0.0293884313
 H          2.1398387100       -1.2985555100        1.0838000412
 N          4.3097573202       -0.9660815107       -0.3437080686
 S          4.4496070501        0.2541205797        0.7937011809
 O          5.8542978401        0.6004240397        0.7697763810
 O          3.9291515099       -0.1886925497        2.0608905510
 C          3.4890226003        1.6017933695        0.1297859403
 C          2.1765783202        1.7846238998        0.5134772500
 C          1.4449487904        2.8027178496       -0.0792060905
 C          2.0311610205        3.6162769392       -1.0352953807
 C          3.3544013106        3.4234312289       -1.4044169305
 C          4.0892795305        2.4047694591       -0.8220344600
 H          5.1229151105        2.2277808490       -1.0720406498
 H          3.8109864707        4.0617181586       -2.1435567007
 H          1.4542854406        4.4058455690       -1.4906185411
 H          0.4168216703        2.9434007597        0.2175100793
 H          1.7310225301        1.1502467401        1.2637771102
 H          5.0254705903       -0.8765085510       -1.0507473586
 H          3.6869790605       -1.4322437717       -2.8877617585
 H          1.4526516306       -2.0586264419       -3.7245618086
 H         -0.4470254796       -2.2629046412       -2.1667139988
 H         -0.0178139801       -1.7643760097        1.5508923811
 C         -1.0714067900       -3.2885272901        0.4960701116
 C         -0.3576527402       -4.4391625299        1.1363427321
 C         -1.6049608302       -3.8893345296        1.7597806817
 H         -2.5103218003       -4.4755077795        1.7100303518
 H         -1.5086585003       -3.3125101192        2.6687528015
 H         -0.4046652002       -5.4054881101        0.6583637725
 H          0.5846492498       -4.2345517797        1.6229842021
 H         -1.6225143399       -3.4797885404       -0.4145645184
