  62
        -98.94440641
 C          1.9446779992        0.8649965900        0.0682598609
 C          2.4006528094       -0.4674185601        0.2126468299
 C          3.8180663994       -0.6171293901        0.5686347800
 C          4.5786552292        0.4743322098        0.7688783711
 C          6.0330531291        0.4824519097        1.1543433313
 C          6.9923501793        0.3360178309       -0.0347696086
 C          7.0500424997       -1.0602489986       -0.6556725698
 H          7.9106915398       -1.0767048480       -1.3273089796
 H          7.2335499896       -1.7975336292        0.1265070097
 C          5.7970863299       -1.4525220682       -1.4511852003
 H          5.2168543197       -0.5565630881       -1.6837424697
 H          6.0946648801       -1.8965091374       -2.4039217806
 C          4.8883040799       -2.4603292689       -0.7470493813
 H          4.0173877500       -2.6393005085       -1.3830290316
 H          5.4167187000       -3.4087435889       -0.6265641619
 C          4.3834991696       -2.0039314401        0.6282684190
 H          5.1883637195       -2.0576056406        1.3610792991
 H          3.5798566596       -2.6761899405        0.9392610183
 H          6.7133509893        1.0638037014       -0.8002065481
 H          7.9929183792        0.5937611707        0.3198674817
 H          6.2225077889        1.4456740794        1.6328075521
 H          6.2253675991       -0.3094967708        1.8785581807
 O          4.0899583890        1.7383319498        0.6577227920
 C          2.7748225690        1.9646986399        0.2859379919
 O          2.4662810088        3.1703574699        0.1950122929
 O          1.6697742496       -1.4795485501        0.0542985890
 C          0.5086241492        1.1384304601       -0.3451668691
 C         -0.4369114308        0.5189424191        0.6542049402
 C         -0.3136970011        0.8818407380        1.9938814305
 C         -1.1360784812        0.3281840871        2.9546201000
 C         -2.1080614610       -0.5912869527        2.5991214091
 C         -2.2429260107       -0.9575480117        1.2659946387
 C         -1.4145303906       -0.3967500008        0.3014049693
 H         -1.5295412304       -0.7162570600       -0.7200125710
 N         -3.2060345605       -1.9049573815        0.8860731878
 S         -4.1462830103       -1.6910382206       -0.4770355322
 O         -5.2139261701       -2.6555569509       -0.3312406231
 O         -3.3449943501       -1.8012571595       -1.6683377621
 C         -4.7977337906       -0.0391657008       -0.3127515910
 C         -4.1591780506        1.0144432398       -0.9342464100
 C         -4.6432893109        2.2984983196       -0.7386689591
 C         -5.7499719210        2.5056864987        0.0697848009
 C         -6.3833890510        1.4354704781        0.6835937600
 C         -5.9018498907        0.1504234184        0.4957739990
 H         -6.3709466307       -0.7099280421        0.9449623682
 H         -7.2472249911        1.5995186375        1.3074033099
 H         -6.1221200412        3.5069878085        0.2190954017
 H         -4.1534055509        3.1312435900       -1.2177740083
 H         -3.3052033405        0.8154686104       -1.5599523900
 H         -3.7570258805       -2.2692157422        1.6492477374
 H         -2.7467792110       -1.0322118634        3.3493209686
 H         -1.0228546214        0.6144857363        3.9893724102
 H          0.4485773887        1.5981228579        2.2698583113
 H          0.3855781091        2.2303349600       -0.3013222982
 C          0.2846161196        0.6811942312       -1.7708976495
 C         -0.7262089704        1.3721692117       -2.6339047491
 C          0.7375265496        1.5634602622       -2.8937113987
 H          1.1738360898        1.1032996329       -3.7676287290
 H          1.1846574394        2.5110124920       -2.6293864479
 H         -1.2998668902        0.7790577122       -3.3311657797
 H         -1.2673192006        2.2001599313       -2.2008733586
 H          0.4185876398       -0.3873087087       -1.8972422804
