  62
        -98.93819875
 C         -1.5015476944       -0.9972208956        0.8974859497
 C         -2.1052789373       -0.4155087409       -0.2443309030
 C         -2.5422032822        0.9878838719       -0.1141047771
 C         -2.2750998765        1.6647092719        1.0142224596
 C         -2.6458453481        3.0781110621        1.3919837976
 C         -2.5586710420        4.1600238740        0.3100437336
 C         -1.3948019080        3.9997331338       -0.6789084983
 H         -0.6991712060        3.2304992908       -0.3369064361
 H         -0.8390907900        4.9381992270       -0.7322206121
 C         -1.8566010860        3.6416375145       -2.0927063063
 H         -1.0600447226        3.9001813187       -2.7947115208
 H         -2.7330680690        4.2424710262       -2.3481730802
 C         -2.1747294744        2.1625061714       -2.2991552292
 H         -1.2525167210        1.5820950309       -2.2039074591
 H         -2.5374666163        2.0306286188       -3.3219257325
 C         -3.2093213615        1.5722404798       -1.3258100022
 H         -3.7060695427        0.7377735765       -1.8287015490
 H         -3.9615941663        2.3101413917       -1.0553115562
 H         -2.4648064941        5.1154023202        0.8298015081
 H         -3.4944521987        4.1967026584       -0.2460835544
 H         -3.6624158548        3.0616643434        1.7975494397
 H         -1.9768143746        3.3353217793        2.2172850941
 O         -1.6138026082        1.0898280795        2.0602115779
 C         -1.2093187022       -0.2343553191        2.0279356061
 O         -0.5993952615       -0.6039806791        3.0519838864
 H          1.0755091881       -0.9240967466        0.2324660180
 C          0.9046969419       -1.6666778019       -0.5329156093
 C         -0.1232400082       -2.5850773359       -0.3582331842
 C         -0.3308423267       -3.5457149746       -1.3370455475
 C          0.4555628093       -3.5539384264       -2.4770925415
 C          1.4369855385       -2.5999592520       -2.6741856435
 C          1.6574432840       -1.6392120635       -1.6926551069
 N          2.6383673528       -0.6483217094       -1.8439128690
 S          2.4145815143        0.8640985751       -1.1606961949
 O          1.0267363561        1.2566378509       -1.1280009335
 O          3.3010230988        1.7263033093       -1.9154993258
 C          3.0618452897        0.6815867234        0.4871771198
 C          2.2909016511        1.0335247674        1.5763016858
 C          2.8130709618        0.8750530021        2.8501691441
 C          4.0962781416        0.3759171951        3.0103299573
 C          4.8636957588        0.0364650033        1.9057619315
 C          4.3439765634        0.1885755215        0.6308457100
 H          4.9064738658       -0.0636076454       -0.2524577435
 H          5.8615650266       -0.3501034314        2.0362627812
 H          4.4974499640        0.2503948850        4.0036138018
 H          2.2052711119        1.1276161668        3.7044014551
 H          1.2900853600        1.4064451400        1.4161855150
 H          3.0646967835       -0.5985572424       -2.7572741062
 H          2.0209479727       -2.5880448167       -3.5819512653
 H          0.2825533342       -4.2999659683       -3.2381038592
 H         -1.1261521939       -4.2643579444       -1.2257860960
 C         -0.9632922626       -2.4206829963        0.8841272259
 H         -0.2878015604       -2.4706524550        1.7546510777
 C         -2.0023422638       -3.5117560762        1.0822093720
 C         -3.2688036539       -3.2372224180        1.8360545366
 C         -3.3180294267       -3.5219901099        0.3664115029
 H         -3.7152637870       -4.4739612803        0.0449557228
 H         -3.5238731778       -2.7102140478       -0.3120704867
 H         -3.4412881931       -2.2224279300        2.1653126008
 H         -3.6328361166       -3.9878345199        2.5215067090
 H         -1.5399191407       -4.4780602720        1.2598202764
 O         -2.3024063855       -1.0313784268       -1.3228711882
