  62
        -98.93778916
 C         -2.6070909726       -0.9899106124        0.5102966365
 C         -2.9156353971        0.1915742663        1.2352852735
 C         -4.2331097423        0.7892575856        0.9889720194
 C         -5.0685526477        0.1938136462        0.1188317345
 C         -6.4280794455        0.7063461799       -0.2569027561
 C         -6.3580496001        1.6268446984       -1.4830372081
 C         -5.2855177147        2.7111661796       -1.3794303774
 H         -4.3000267396        2.2393122509       -1.3814602830
 H         -5.3506528239        3.3204123860       -2.2835552021
 C         -5.4124705589        3.6137693295       -0.1441850612
 H         -5.2749291154        4.6517910864       -0.4542172011
 H         -6.4165135782        3.5311140486        0.2735070025
 C         -4.3826427876        3.3366649668        0.9528244863
 H         -3.3799002722        3.3213039752        0.5180692740
 H         -4.4171035666        4.1635155764        1.6672480770
 C         -4.5841507699        2.0391863097        1.7459044092
 H         -5.6104951355        1.9897378634        2.1154558098
 H         -3.9095269293        2.0672132866        2.6065242378
 H         -6.1431360068        1.0161445466       -2.3629931020
 H         -7.3360183498        2.0912360468       -1.6224325299
 H         -6.8540953140        1.2422865712        0.5890873684
 H         -7.0641262632       -0.1488491164       -0.4915484068
 O         -4.7436204908       -0.9356635162       -0.5556197029
 C         -3.5091295974       -1.5502620092       -0.3949684501
 O         -3.3691546652       -2.5644627092       -1.1060255471
 O         -2.1230600187        0.7153813497        2.0642164894
 C         -1.2504397571       -1.6148722142        0.7865863379
 C         -0.2261259210       -1.2269333380       -0.2542103497
 C         -0.3783592478       -1.5796636425       -1.5908091159
 C          0.5847278701       -1.2305902883       -2.5202201798
 C          1.7158377679       -0.5300160656       -2.1400376787
 C          1.8801726391       -0.1769167433       -0.8075907999
 C          0.9115297994       -0.5290449988        0.1247119396
 H          1.0362727747       -0.2416544892        1.1601618645
 N          3.0220767770        0.5440215535       -0.4164103563
 S          4.5010504543        0.0469072025       -1.0688230007
 O          4.6666336163        0.6795881197       -2.3535024174
 O          4.5832789586       -1.3960047700       -1.0601782075
 C          5.6507802308        0.7413893638        0.1021376973
 C          6.0432719946        2.0584076451       -0.0434658355
 C          6.9208054684        2.6008938733        0.8818693919
 C          7.3878561656        1.8227496420        1.9308004770
 C          6.9858561145        0.5019992335        2.0628119206
 C          6.1075517212       -0.0466360102        1.1417459544
 H          5.7768014995       -1.0714204245        1.1990766387
 H          7.3532216025       -0.1014514980        2.8772591719
 H          8.0720352407        2.2471102509        2.6485465980
 H          7.2385005635        3.6261848562        0.7814951498
 H          5.6623301206        2.6217162533       -0.8792816688
 H          3.0789034500        0.6588439611        0.5862493820
 H          2.4764480406       -0.2600819720       -2.8552931719
 H          0.4546192955       -1.5095984652       -3.5553963862
 H         -1.2598633411       -2.1232840491       -1.8942882993
 H         -0.9307009020       -1.1795799310        1.7432763385
 C         -1.2979633792       -3.1225588877        0.9432340812
 C         -0.2058050557       -3.8063181357        1.7074465658
 C         -1.5832960237       -3.7114172521        2.2905869052
 H         -2.1865189885       -4.6050981109        2.3436205241
 H         -1.7441138489       -3.0271903058        3.1110716577
 H          0.1420770940       -4.7665586777        1.3590513889
 H          0.5694434369       -3.1877699341        2.1339369961
 H         -1.7055193367       -3.6329409973        0.0808049197
