  62
        -98.94739975
 C         -2.5306727999       -0.2325323494        0.0091251744
 C         -2.2717038868       -1.2710335817       -0.9152919221
 C         -1.6880204670       -2.4952156284       -0.3574002142
 C         -1.4389615373       -2.5729052642        0.9626814509
 C         -0.8621038071       -3.7588758050        1.6877289084
 C          0.6703247870       -3.8248648021        1.6397209611
 C          1.2549309509       -4.2601684662        0.2955513386
 H          2.3057579034       -4.5033294712        0.4644125755
 H          0.7576002500       -5.1704745414       -0.0418020146
 C          1.1702772279       -3.1869630867       -0.7980103656
 H          1.0028806439       -2.2085916155       -0.3409785935
 H          2.1262301527       -3.1196789673       -1.3239050766
 C          0.0953893154       -3.4285681097       -1.8580750392
 H          0.3480701067       -4.3176007861       -2.4414698474
 H          0.0975449962       -2.5679142904       -2.5326959077
 C         -1.3251017570       -3.5993342718       -1.3044546043
 H         -2.0248177437       -3.5586269965       -2.1433849985
 H         -1.4222853241       -4.5678558798       -0.8135009993
 H          1.0675336520       -2.8411705518        1.9027363491
 H          0.9924184068       -4.5362004937        2.4039742366
 H         -1.1715569531       -3.6635134460        2.7307644859
 H         -1.2824887551       -4.6794872729        1.2814266931
 O         -1.7185480821       -1.5583046715        1.8223140206
 C         -2.2242903393       -0.3526552937        1.3647436755
 O         -2.3788267605        0.5086841641        2.2529214732
 H         -0.4430317328        0.9172800139       -0.9440750461
 C         -0.6823670462        1.8557183495       -0.4645320533
 C         -2.0080971320        2.1582715758       -0.1803342072
 C         -2.2966754926        3.3816667339        0.4086390368
 C         -1.2729705050        4.2523153815        0.7435411232
 C          0.0492539685        3.9167341859        0.5196851315
 C          0.3457776006        2.7035070302       -0.0930218619
 N          1.6744032641        2.3216196345       -0.3513883249
 S          2.0241911720        0.6673775429       -0.3412339965
 O          1.7155523957        0.1342951252       -1.6442521372
 O          1.4030023017        0.0226374868        0.7937643274
 C          3.7937827053        0.7163425761       -0.1275973525
 C          4.5884265386        0.9693384388       -1.2299203964
 C          5.9623546080        1.0394300879       -1.0631757489
 C          6.5159433217        0.8563853692        0.1954854850
 C          5.7062032761        0.6001149831        1.2917016068
 C          4.3309400482        0.5306698432        1.1318985616
 H          3.6614623756        0.3264950431        1.9524042550
 H          6.1386602108        0.4540833630        2.2683762001
 H          7.5855454090        0.9105593188        0.3226053804
 H          6.5951682224        1.2352466631       -1.9136191635
 H          4.1122887733        1.0938077811       -2.1884273939
 H          2.3480365094        2.8547315736        0.1813858966
 H          0.8459766934        4.5818671541        0.8160841037
 H         -1.5086778071        5.1969893999        1.2098550692
 H         -3.3191185137        3.6455985450        0.6240491769
 C         -3.0412789373        1.1049796705       -0.4993940841
 H         -3.1090586657        0.9990683166       -1.5927764595
 C         -4.4164963703        1.4122085111        0.0523632185
 C         -5.3647820287        2.2772323129       -0.7216931792
 C         -5.6155559286        0.8043800186       -0.6093224057
 H         -6.4289438261        0.4629056125        0.0129308816
 H         -5.4401283757        0.1854260593       -1.4771847762
 H         -6.0115339281        2.9484446136       -0.1772310358
 H         -5.0269191859        2.6614907188       -1.6722048127
 H         -4.4220528663        1.4809272724        1.1343815757
 O         -2.5223335464       -1.1798817970       -2.1491335188
