  62
        -98.93466338
 C         -2.1653381974       -0.8136102959        0.1351464881
 C         -3.0272467394       -0.1884269618        1.0684336963
 C         -3.8986739245        0.8855120537        0.5598626090
 C         -3.8020981998        1.2544597112       -0.7308828368
 C         -4.5220724351        2.3294057301       -1.5181763073
 C         -5.7738042079        3.0008020560       -0.9592291113
 C         -6.9936944163        2.0868250779       -0.8465511276
 H         -7.7901390804        2.6403679138       -0.3444899669
 H         -7.3406571237        1.8452949412       -1.8543707762
 C         -6.7652107051        0.7686549975       -0.1110793024
 H         -7.7090419598        0.2167397552       -0.1128441554
 H         -6.0393307005        0.1642413672       -0.6590918119
 C         -6.3077702589        0.9000809971        1.3403665020
 H         -6.3378756619       -0.0975812378        1.7871385510
 H         -7.0069451304        1.5326914275        1.8906136221
 C         -4.8857296979        1.4529155397        1.5389810159
 H         -4.5406885608        1.1497929127        2.5320446193
 H         -4.8760624722        2.5399610938        1.5093563961
 H         -6.0294798471        3.8070342854       -1.6521541681
 H         -5.5563561816        3.4666713013       -0.0025404758
 H         -3.7725575174        3.1037208344       -1.7160468892
 H         -4.7602502385        1.8786020750       -2.4868466941
 O         -2.9023439795        0.6726051514       -1.5759228699
 C         -2.0724206696       -0.3682228022       -1.1830309694
 O         -1.3219983972       -0.7797615483       -2.0854611392
 O         -3.0618897607       -0.5068618354        2.2880957268
 C         -1.2801484893       -1.9405229608        0.6340566597
 C          0.1442550899       -1.7325864846        0.1829202796
 C          0.8694399328       -2.6670746017       -0.5431456473
 C          2.1798177032       -2.4080343555       -0.9067350214
 C          2.7932827919       -1.2195550928       -0.5587299295
 C          2.0782755245       -0.2773027369        0.1695352673
 C          0.7701373530       -0.5436914836        0.5402898665
 H          0.2134022935        0.1918794542        1.1098224756
 N          2.6919844322        0.9414555091        0.5157809535
 S          4.1498697007        0.8683709588        1.3484083477
 O          4.2427296446       -0.3347053043        2.1432253864
 O          4.2384248151        2.1212916593        2.0668636763
 C          5.3822600156        0.8480635102        0.0641678096
 C          6.2941940781       -0.1873053976        0.0020274463
 C          7.2518309313       -0.1770429783       -1.0002629896
 C          7.2808155686        0.8632420308       -1.9163474639
 C          6.3590593469        1.8968326554       -1.8385521371
 C          5.3997152302        1.8931042449       -0.8386509528
 H          4.6682158608        2.6779559239       -0.7410367415
 H          6.3846506744        2.7038774877       -2.5529778224
 H          8.0262766713        0.8690626896       -2.6958005110
 H          7.9694304389       -0.9792529405       -1.0625275342
 H          6.2294408001       -0.9770251904        0.7333772135
 H          2.0662494088        1.5935940852        0.9663148947
 H          3.8105813917       -1.0119570817       -0.8478588502
 H          2.7291117676       -3.1416213757       -1.4768508032
 H          0.4041036094       -3.5915023613       -0.8425023879
 H         -1.2986921035       -1.8335375414        1.7324876925
 C         -1.8143694271       -3.3325162716        0.3304793325
 C         -3.2803987913       -3.5715682780        0.1305611639
 C         -2.3344282891       -3.7142056689       -1.0218863870
 H         -2.1239829785       -4.7078579456       -1.3897067774
 H         -2.3345574304       -2.9553087694       -1.7882501502
 H         -3.7166952651       -4.4633049742        0.5551089115
 H         -3.9358993258       -2.7129170937        0.1517971109
 H         -1.2765980370       -4.0993735969        0.8797758931
