  62
        -98.93635756
 C          1.0247168028        1.5409567767        0.7705631521
 C          1.6524024176        1.2947523411       -0.4744146822
 C          2.6847186354        0.2400358507       -0.4901709882
 C          2.9031805472       -0.4899126483        0.6160797406
 C          3.9090387206       -1.5902290650        0.8492890837
 C          4.1856961245       -2.5676607243       -0.2984371953
 C          2.9547972115       -2.9360297625       -1.1389568222
 H          2.8747205735       -4.0227539624       -1.1934929999
 H          2.0507332945       -2.5614585930       -0.6573221332
 C          3.0183854135       -2.3959930439       -2.5686796172
 H          4.0281092445       -2.5398023811       -2.9595506701
 H          2.3384630228       -2.9770535248       -3.1957602954
 C          2.6283328115       -0.9268915963       -2.7174818333
 H          2.7978194577       -0.6341940653       -3.7564998754
 H          1.5597418409       -0.8029313753       -2.5209467677
 C          3.3886919232        0.0476757072       -1.8034395963
 H          4.4198427917       -0.2675562121       -1.6631935934
 H          3.3900483965        1.0279326000       -2.2881053412
 H          4.9571725742       -2.1590658015       -0.9492197035
 H          4.6039401077       -3.4690492032        0.1529905534
 H          4.8506557103       -1.1239768965        1.1555053448
 H          3.5306361174       -2.1397049629        1.7146746426
 O          2.2040469842       -0.2809148691        1.7691440257
 C          1.2675891472        0.7305012276        1.8803705219
 O          0.7180093063        0.7970487926        2.9989187413
 O          1.3897942362        1.9266256435       -1.5289317583
 C         -0.0590430551        2.5950937106        0.9215680008
 C         -1.0838470416        2.4012155257       -0.1694599660
 C         -1.4612174381        3.3777217418       -1.0799403555
 C         -2.4086836485        3.0939092236       -2.0490118916
 C         -3.0074990935        1.8494407196       -2.1186025822
 C         -2.6364920185        0.8645436261       -1.2091010569
 C         -1.6782389353        1.1480644155       -0.2524711117
 H         -1.3831646213        0.3823061411        0.4495862360
 N         -3.2014223778       -0.4188654238       -1.2512099669
 S         -3.5114793027       -1.2467385743        0.1702001798
 O         -4.5292626741       -2.2095651475       -0.1953519370
 O         -3.8500362720       -0.3441777176        1.2457092651
 C         -2.0090742458       -2.1292063223        0.5365786991
 C         -1.3350792698       -1.8868754028        1.7165554105
 C         -0.1864314629       -2.6105548600        1.9962930380
 C          0.2607867455       -3.5665865140        1.0984446527
 C         -0.4298897743       -3.8021394765       -0.0817905992
 C         -1.5745947122       -3.0776179902       -0.3688702734
 H         -2.1424974293       -3.2361687025       -1.2704820925
 H         -0.0760233744       -4.5458151862       -0.7774611997
 H          1.1526652159       -4.1310038323        1.3211730917
 H          0.3537083804       -2.4089848958        2.9081107619
 H         -1.7055390450       -1.1335637860        2.3954910128
 H         -3.9398013440       -0.5407990357       -1.9285617017
 H         -3.7492558214        1.6353180178       -2.8731314463
 H         -2.6887981454        3.8569232442       -2.7596394161
 H         -0.9991494821        4.3507007491       -1.0469517597
 H         -0.5544986787        2.3523700473        1.8773930925
 C          0.4409715177        4.0248056993        1.0526804940
 C          1.8039611143        4.3150237862        1.6057623799
 C          1.5020928553        4.6027756104        0.1672954035
 H          1.4044114023        5.6352403371       -0.1358314507
 H          1.9248493503        3.9623404782       -0.5892330568
 H          1.9158555338        5.1444154351        2.2880794406
 H          2.4373568489        3.4703651517        1.8362725361
 H         -0.3531329725        4.6987597075        1.3609812299
