  62
        -98.93868318
 C          1.3121231140        1.3555089484        0.6854031337
 C          2.2820566856        1.2326447692       -0.3348947889
 C          3.2200714943        0.0926676225       -0.2284439615
 C          3.0617333835       -0.7929097962        0.7721528930
 C          3.8654357577       -2.0330293616        1.0683980689
 C          3.5840270897       -3.1939503408        0.1023879564
 C          3.5443138168       -2.8077324723       -1.3729965902
 H          3.2504606705       -3.6942917573       -1.9410779761
 H          2.7723226257       -2.0522814016       -1.5295613149
 C          4.8651378960       -2.2985941562       -1.9440922713
 H          5.6418341513       -3.0490215735       -1.7820442448
 H          4.7311174150       -2.1890037580       -3.0233513540
 C          5.3518132848       -0.9568869180       -1.3903513425
 H          5.8315086948       -1.0764024369       -0.4224612672
 H          6.1207699842       -0.5825190938       -2.0722387086
 C          4.2737368593        0.1190923736       -1.3100567431
 H          4.7626067385        1.0956289659       -1.2105946649
 H          3.7378982004        0.1656035793       -2.2650810286
 H          2.6159603777       -3.6304886552        0.3582745832
 H          4.3470263055       -3.9589472728        0.2571897362
 H          4.9252019011       -1.7944429321        1.0775133186
 H          3.5905724530       -2.3460150013        2.0782045788
 O          2.0637411306       -0.6699690343        1.6948556410
 C          1.1805591835        0.3867175282        1.6838343630
 O          0.3342478745        0.3639942095        2.5999585327
 H         -2.0007847527        1.3121750654        1.3529890314
 C         -1.9481895948        1.5355076472        0.2952130225
 C         -0.8213614131        2.1747419023       -0.2056863197
 C         -0.7481697793        2.4229121119       -1.5716294146
 C         -1.7819006370        2.0415601836       -2.4092528924
 C         -2.9060769261        1.4093293073       -1.9065011288
 C         -2.9835227892        1.1521133053       -0.5446928325
 N         -4.1181804616        0.4778728609       -0.0328820010
 S         -4.1995458065       -1.1509039062       -0.4174020216
 O         -4.2480203016       -1.2834706830       -1.8503768640
 O         -5.3286685035       -1.6742135881        0.3162099073
 C         -2.6832868592       -1.8412346405        0.2180093356
 C         -1.5249574303       -1.7028886214       -0.5201283419
 C         -0.3348994188       -2.1696017884        0.0130715566
 C         -0.3218492115       -2.7578032977        1.2676474790
 C         -1.4929409998       -2.8866610709        1.9969502794
 C         -2.6859048637       -2.4191319422        1.4715618618
 H         -3.6195617091       -2.4982426106        2.0054931469
 H         -1.4751204255       -3.3388493741        2.9755077849
 H          0.6099069702       -3.1033120830        1.6868147473
 H          0.5805411472       -2.0595734605       -0.5474268431
 H         -1.5689274792       -1.2394365223       -1.4928941824
 H         -4.2105694985        0.5741298505        0.9695536609
 H         -3.7102291079        1.0889328526       -2.5485345681
 H         -1.7109663017        2.2372953533       -3.4685764090
 H          0.1366738142        2.8871316797       -1.9766558158
 C          0.3095552280        2.4993082678        0.7386658454
 H         -0.0968583378        2.4867283910        1.7589708964
 C          0.9269031760        3.8586863277        0.4874872909
 C          0.1505619205        5.0831136784        0.8650965298
 C          1.3617768829        4.6900609031        1.6551441443
 H          2.2575771208        5.2849497651        1.5582432935
 H          1.2151937031        4.2821266454        2.6449351543
 H          0.2119378704        5.9501777879        0.2256500449
 H         -0.8188980825        4.9398105610        1.3184650108
 H          1.5385861725        3.9032899822       -0.4030399803
 O          2.3941355124        2.0288620776       -1.3037098359
