  62
        -98.94966393
 C          1.6878978428        1.2231375366        0.3371846636
 C          1.3312614129        0.1615520865       -0.5266721006
 C          1.8875619536       -1.1521162891       -0.1907120360
 C          2.6477424240       -1.2923793944        0.9100784092
 C          3.2538901057       -2.5759266032        1.4094049746
 C          4.5815106614       -2.9491982046        0.7350766237
 C          4.4648038921       -3.4396580248       -0.7086392280
 H          5.4310763365       -3.8701945090       -0.9788534495
 H          3.7255829354       -4.2396619822       -0.7589959684
 C          4.1109048392       -2.3433633843       -1.7229786148
 H          4.2983329572       -1.3632271323       -1.2786589093
 H          4.7625657286       -2.4307492019       -2.5951298630
 C          2.6686463924       -2.3893904932       -2.2273051124
 H          2.5176942722       -1.5497796676       -2.9100839937
 H          2.5048778469       -3.3134039831       -2.7859725108
 C          1.6107808358       -2.2951564175       -1.1197630993
 H          1.5596130849       -3.2305030835       -0.5622639508
 H          0.6373328254       -2.1173277816       -1.5835553956
 H          5.2470174395       -2.0837010275        0.7741484233
 H          5.0353056526       -3.7443703066        1.3311490680
 H          2.5359593238       -3.3877719743        1.2862874539
 H          3.4355702288       -2.4369527982        2.4776149330
 O          2.9450094347       -0.2518050357        1.7341219577
 C          2.4743090315        1.0243123496        1.4697965192
 O          2.8184137962        1.8850181102        2.3076047746
 O          0.5789046264        0.3044819013       -1.5266512332
 C          1.1395023905        2.6148486884        0.0799693668
 C         -0.3670139355        2.5604703559       -0.0085519266
 C         -1.1047802673        3.2853631308       -0.9364577674
 C         -2.4840417205        3.1742743869       -0.9783194647
 C         -3.1531290377        2.3249905297       -0.1160286714
 C         -2.4243639159        1.6042260491        0.8227012334
 C         -1.0488940277        1.7496466757        0.8899212598
 H         -0.4989383445        1.1838753841        1.6282950000
 N         -3.0511161085        0.7066589698        1.7135484510
 S         -2.6460163524       -0.9142448360        1.5663849787
 O         -3.4770278718       -1.5955339327        2.5366732239
 O         -1.2235449513       -1.0853652269        1.7116336176
 C         -3.1832389174       -1.3545765931       -0.0775300219
 C         -4.4064115576       -1.9811909860       -0.2248906235
 C         -4.8659502229       -2.2681856751       -1.4996918168
 C         -4.1021501602       -1.9158196174       -2.6024856311
 C         -2.8800399013       -1.2831939612       -2.4370670450
 C         -2.4108789435       -0.9955700288       -1.1638904479
 H         -1.4602003788       -0.5060971973       -1.0168523959
 H         -2.2793482103       -1.0045486374       -3.2881334850
 H         -4.4597486541       -2.1354053674       -3.5961495153
 H         -5.8157277138       -2.7616775726       -1.6289468711
 H         -4.9628574923       -2.2381131938        0.6620896559
 H         -4.0588481180        0.7908265821        1.7301844876
 H         -4.2261458055        2.2166912018       -0.1666801699
 H         -3.0433106559        3.7424437181       -1.7057504586
 H         -0.5980886381        3.9335594280       -1.6326433598
 H          1.4133895120        3.2195592411        0.9573695133
 C          1.7897729933        3.2144287595       -1.1507429547
 C          2.0035317957        4.6942094372       -1.2522050898
 C          3.1714238608        3.7815737942       -1.0327207437
 H          3.8658074663        3.6236325728       -1.8442546704
 H          3.6312547909        3.7602208109       -0.0550302719
 H          1.9002064114        5.1657302567       -2.2178904192
 H          1.6782991660        5.3051782988       -0.4237066402
 H          1.5493164663        2.6664326644       -2.0546544655
