  62
        -98.94492040
 C          1.0119113172        1.1628953119       -0.2755383716
 C          2.0666415615        1.3169437770        0.6632864840
 C          2.9487182357        0.1616771749        0.8509529999
 C          2.7165104497       -0.9688121075        0.1601531281
 C          3.5120949968       -2.2424766365        0.2514367970
 C          4.7787610931       -2.2533720415       -0.6155286684
 C          5.9223940664       -1.3717287944       -0.1124821939
 H          6.1251232763       -1.6019354783        0.9338942441
 H          6.8122676020       -1.6438673232       -0.6837187043
 C          5.6765794822        0.1351338592       -0.2716592393
 H          6.5677359672        0.6077292410       -0.6911478612
 H          4.8635205273        0.2988657241       -0.9827802106
 C          5.3473969859        0.8641684058        1.0310604430
 H          6.2082191682        0.8225143142        1.7022149033
 H          5.1540960459        1.9141619150        0.7969256846
 C          4.1227653452        0.3105740946        1.7710840814
 H          3.8445496997        1.0215273945        2.5528262737
 H          4.3652294970       -0.6446156489        2.2360608490
 H          5.1364994511       -3.2847934865       -0.6561179294
 H          4.5093647089       -1.9549929143       -1.6312804251
 H          3.7796079337       -2.4338437761        1.2908177310
 H          2.8547249041       -3.0413105838       -0.0955439863
 O          1.6876793740       -1.0862187710       -0.7170669486
 C          0.8207362133       -0.0315844635       -0.9714492399
 O         -0.0476132409       -0.3068658071       -1.8228853174
 O          2.2624155120        2.3793617598        1.3122592772
 C          0.1024702978        2.3647892279       -0.4638661594
 C         -1.1271773168        2.2588733773        0.4067868040
 C         -1.4531790831        3.2669319728        1.3060937331
 C         -2.5849514553        3.1639841940        2.0953635817
 C         -3.4065149672        2.0556415568        2.0050440802
 C         -3.0838262083        1.0367177168        1.1136450399
 C         -1.9521788424        1.1462567298        0.3190503546
 H         -1.7176116831        0.3628321309       -0.3831550383
 N         -3.8655129945       -0.1191950102        1.0491427857
 S         -3.8326549272       -1.1897039360       -0.2250711354
 O         -3.8813973309       -0.5143630879       -1.5003851257
 O         -4.9479655899       -2.0755180249        0.0466686053
 C         -2.3259296385       -2.1165160474       -0.0305500233
 C         -1.7683143954       -2.7043710429       -1.1470088375
 C         -0.6438577078       -3.4995071577       -0.9962937126
 C         -0.0980920580       -3.6892162090        0.2624727462
 C         -0.6629997804       -3.0826695368        1.3733579763
 C         -1.7917745585       -2.2926113684        1.2300561058
 H         -2.2522563435       -1.8075930120        2.0751402606
 H         -0.2267723379       -3.2215349650        2.3498563554
 H          0.7749611395       -4.3123143482        0.3795773656
 H         -0.1938563048       -3.9567484058       -1.8629669410
 H         -2.2108274709       -2.5154193723       -2.1118776472
 H         -4.7352084124       -0.1142515512        1.5584415937
 H         -4.2879123194        1.9718173569        2.6219034497
 H         -2.8299166700        3.9537430647        2.7891151449
 H         -0.8071315934        4.1279251195        1.3923756896
 H          0.6870347597        3.2262448926       -0.1117513081
 C         -0.3023993877        2.6184878455       -1.9026010177
 C         -0.6509179112        4.0129958492       -2.3253838452
 C          0.6210850222        3.3800929155       -2.8029797185
 H          0.6958545407        3.0787304893       -3.8369866024
 H          1.5527465462        3.7293633983       -2.3817298835
 H         -1.4555517243        4.1486689750       -3.0317450245
 H         -0.5791260979        4.7953522847       -1.5850109147
 H         -0.8673664336        1.8051446508       -2.3401669391
