  62
        -98.94366218
 C         -1.8672593420       -0.7739403534       -0.6062186306
 C         -3.1950780629       -1.2309362330       -0.4326993774
 C         -4.2343621116       -0.1953613527       -0.4504213917
 C         -3.8919219577        1.0910043284       -0.6475642603
 C         -4.8400089124        2.2569728402       -0.7239600988
 C         -5.2324243472        2.8344424719        0.6427610878
 C         -6.1861327020        1.9670158742        1.4651272910
 H         -6.5453931738        2.5815793439        2.2930206328
 H         -7.0517932488        1.7030009513        0.8567727097
 C         -5.5485582268        0.6930878494        2.0371336084
 H         -4.4603074678        0.7858379619        2.0065673248
 H         -5.8298423463        0.5846191970        3.0871393619
 C         -5.9567938827       -0.5959588650        1.3235699214
 H         -5.4210833681       -1.4286281502        1.7869485161
 H         -7.0267119065       -0.7673633373        1.4612166116
 C         -5.6485387956       -0.6116231652       -0.1795717445
 H         -6.3457139437        0.0342132276       -0.7129987794
 H         -5.7699497179       -1.6348273753       -0.5436954865
 H         -4.3225261361        3.0215331397        1.2178447864
 H         -5.7155394281        3.7976940067        0.4632581275
 H         -4.3281935049        3.0366875141       -1.2921317645
 H         -5.7385343851        1.9640003332       -1.2677508560
 O         -2.6043931403        1.4876180485       -0.8265451546
 C         -1.5590523449        0.5743283587       -0.7880238955
 O         -0.4318464745        1.0800866121       -0.9319762276
 O         -3.4959168731       -2.4443997880       -0.2705480850
 C         -0.7348098154       -1.7833250758       -0.5905735981
 C          0.2626794310       -1.4507368123        0.4913794783
 C         -0.2009907269       -1.0779857839        1.7504103820
 C          0.6790448300       -0.7556857593        2.7654118684
 C          2.0459786779       -0.8105324279        2.5543624009
 C          2.5206605339       -1.1930383767        1.3078902639
 C          1.6327549364       -1.5135687290        0.2867535119
 H          2.0214333503       -1.8071596819       -0.6761385713
 N          3.9139312806       -1.2663469976        1.0973427564
 S          4.8048939738        0.1508194470        1.1503324167
 O          6.1842191550       -0.2502027305        0.9926698949
 O          4.4783414915        0.8643898861        2.3575788840
 C          4.2880885307        1.0756138768       -0.2853640012
 C          3.0024611922        1.5772214830       -0.3258772606
 C          2.5734908214        2.2307774692       -1.4701933416
 C          3.4378474465        2.3807449899       -2.5438219126
 C          4.7299320501        1.8794851379       -2.4845645304
 C          5.1587772305        1.2114986444       -1.3491898970
 H          6.1495666384        0.7953242783       -1.2627292695
 H          5.3990569687        2.0003588047       -3.3214857722
 H          3.0988997977        2.8895317825       -3.4327700262
 H          1.5563612887        2.5855299375       -1.5150339688
 H          2.3431405812        1.4488113020        0.5173260612
 H          4.1663619686       -1.7803893207        0.2643232263
 H          2.7464334888       -0.5461217330        3.3291839384
 H          0.2993704373       -0.4621052544        3.7327126924
 H         -1.2682435729       -1.0368317757        1.9220004829
 H         -1.2057669212       -2.7450466469       -0.3362284033
 C         -0.1175769876       -1.8948519827       -1.9696451639
 C          0.4759415943       -3.1905936796       -2.4345511953
 C         -0.8216433811       -2.7111362661       -3.0103188867
 H         -0.8352539054       -2.3504202817       -4.0277742465
 H         -1.7311941571       -3.2127258446       -2.7134913739
 H          1.3539898219       -3.1611630275       -3.0624398298
 H          0.4474925958       -4.0279407418       -1.7536156323
 H          0.3501679842       -0.9704418858       -2.2908177931
