  62
        -98.94520052
 C         -2.0775341643       -1.4535907788       -0.0015372864
 C         -1.8994018210       -0.4733926063       -1.0077224469
 C         -2.7828613319        0.6998742826       -0.9240001221
 C         -3.6789408601        0.7881957565        0.0749897304
 C         -4.5928748745        1.9548151563        0.3099530401
 C         -3.9456391776        2.9907659021        1.2398101922
 C         -2.5237296235        3.3832583537        0.8375369544
 H         -1.8663350927        2.5188739385        0.9561893698
 H         -2.1893243556        4.1440608243        1.5459251485
 C         -2.3954602198        3.9226383593       -0.5937923107
 H         -1.7640249278        4.8131562245       -0.5796430550
 H         -3.3748779607        4.2287301779       -0.9632634506
 C         -1.7636588399        2.9432665746       -1.5845238043
 H         -0.8281476028        2.5567497006       -1.1729470706
 H         -1.5209850189        3.4927588008       -2.4978828911
 C         -2.6369311408        1.7497238936       -1.9896819134
 H         -2.1497254817        1.2537980264       -2.8342577893
 H         -3.6168037896        2.1019011013       -2.3185883785
 H         -3.9136876986        2.5760692189        2.2499699046
 H         -4.5794799367        3.8793096247        1.2579351106
 H         -5.5089923155        1.5854626113        0.7739894693
 H         -4.8417036632        2.4132847976       -0.6451992166
 O         -3.8209156314       -0.1710933456        1.0243944304
 C         -3.0292474492       -1.3046803725        1.0128064490
 O         -3.2658128855       -2.1019280383        1.9423125790
 O         -1.0580348703       -0.5554186544       -1.9419242589
 C         -1.2463929136       -2.7273274911        0.0541489337
 C          0.1464284897       -2.4034708290        0.5391795939
 C          0.4698864739       -2.5698656675        1.8818275024
 C          1.7340513056       -2.2545289087        2.3467122212
 C          2.6989551691       -1.7609991751        1.4861808570
 C          2.3781927714       -1.5680428006        0.1483323005
 C          1.1124374676       -1.8981427484       -0.3186001897
 H          0.8662662155       -1.7303801647       -1.3553673124
 N          3.3407770415       -1.0654295910       -0.7456651917
 S          4.2400169415        0.2882172241       -0.3593093469
 O          4.9181780625        0.6488837911       -1.5827317204
 O          5.0817454345       -0.0085996751        0.7728003604
 C          3.0680410601        1.5594412148        0.0775373216
 C          2.5904821055        1.6301455241        1.3710193235
 C          1.6626641934        2.6095097510        1.6885570426
 C          1.2375375408        3.5013628883        0.7165450966
 C          1.7285167481        3.4186028913       -0.5776010258
 C          2.6465034512        2.4340473463       -0.9042501098
 H          3.0563844872        2.3379124381       -1.8967783450
 H          1.3976493481        4.1152351113       -1.3310981928
 H          0.5189382518        4.2648707444        0.9685451132
 H          1.2766689589        2.6742074349        2.6933779441
 H          2.9545981725        0.9319180963        2.1062198191
 H          3.0005218627       -0.9936177043       -1.6938821886
 H          3.6910361533       -1.5190801385        1.8318646489
 H          1.9739229644       -2.3989878457        3.3894257403
 H         -0.2846738324       -2.9424519602        2.5601659104
 H         -1.7252771231       -3.3578552792        0.8147445939
 C         -1.2496597959       -3.4804726205       -1.2611393467
 C         -0.8201707232       -4.9155453237       -1.2758122700
 C         -2.2621373625       -4.5621734926       -1.4804930950
 H         -2.6878896647       -4.6770509789       -2.4661282952
 H         -2.9573284148       -4.7674722284       -0.6792795307
 H         -0.2534297879       -5.2765594176       -2.1203501012
 H         -0.5365251565       -5.3604702337       -0.3338750372
 H         -0.9931997881       -2.8681810449       -2.1153972970
