  62
        -98.94482827
 C         -2.0086916861       -1.3703061970        0.2829626321
 C         -2.6326994612       -0.7419107888       -0.8220631490
 C         -3.7829416929        0.1123803739       -0.4996293069
 C         -4.1872506904        0.2403032331        0.7772320020
 C         -5.3576236469        1.0545582331        1.2583783514
 C         -5.0374305138        2.5398445945        1.4758240352
 C         -4.8426782250        3.3571528159        0.1979939739
 H         -5.6960924032        3.2045735774       -0.4632921908
 H         -4.8393634850        4.4097874697        0.4879282330
 C         -3.5421876046        3.0499817502       -0.5581707695
 H         -3.0557175574        3.9855148102       -0.8438723721
 H         -2.8512248075        2.5223149667        0.1037824090
 C         -3.7284013238        2.2281626564       -1.8339017297
 H         -2.7416865228        2.0364645300       -2.2640414883
 H         -4.3058739696        2.8050818986       -2.5596002544
 C         -4.4227282659        0.8768089328       -1.6186494593
 H         -5.4845242771        1.0255320288       -1.4236431834
 H         -4.3117436401        0.2860946851       -2.5311285908
 H         -5.8686564158        2.9740730796        2.0360413557
 H         -4.1422284497        2.6175256737        2.0974663191
 H         -6.1846300355        0.9588749298        0.5544943732
 H         -5.6631211421        0.6251667259        2.2149893932
 O         -3.5647194040       -0.3893896604        1.8096129387
 C         -2.4486604872       -1.1829027568        1.5923735173
 O         -1.9431603312       -1.6553201528        2.6317035202
 H          0.0479687629        0.1710065883        0.7321208629
 C          0.6084881663       -0.2095377824       -0.1135471840
 C          0.3021945179       -1.4697306605       -0.6136081198
 C          1.0419434247       -1.9527296916       -1.6845557164
 C          2.0344968644       -1.1764075579       -2.2588990259
 C          2.3180999321        0.0868042442       -1.7751759878
 C          1.5991609323        0.5706307380       -0.6887154462
 N          1.8948148413        1.8443491345       -0.1742966911
 S          3.5059727385        2.2500273265        0.0283203216
 O          3.5218520818        3.2069569845        1.1126089401
 O          4.0512011243        2.7117599467       -1.2238957047
 C          4.3158799629        0.7363589310        0.5154366220
 C          5.3283350339        0.2145796948       -0.2635657044
 C          5.9232815658       -0.9767402404        0.1200479944
 C          5.4943400601       -1.6243818824        1.2679301598
 C          4.4779211204       -1.0856629859        2.0422253858
 C          3.8814902341        0.1062513057        1.6648553331
 H          3.0915943199        0.5515605338        2.2488386505
 H          4.1443128304       -1.5900665355        2.9349983668
 H          5.9537818975       -2.5542412040        1.5636319943
 H          6.7151615761       -1.3968817995       -0.4786831183
 H          5.6279080664        0.7493390791       -1.1500886533
 H          1.3467053762        2.1010745150        0.6329640259
 H          3.0736497543        0.7107120928       -2.2243459162
 H          2.5921470502       -1.5595394639       -3.0995786198
 H          0.8346015183       -2.9336550926       -2.0786703067
 C         -0.7963089278       -2.2561169927        0.0609915983
 H         -0.4425917064       -2.5443271037        1.0618769154
 C         -1.1962310052       -3.5075798682       -0.6925595425
 C         -0.4500360788       -4.7893309800       -0.4794185792
 C         -1.8370071595       -4.6302655397        0.0648276799
 H         -2.6434552100       -5.1744333491       -0.4033643136
 H         -1.9601291991       -4.5014552614        1.1306550373
 H         -0.3057685244       -5.4485497632       -1.3220411620
 H          0.3714906243       -4.7796827789        0.2206295996
 H         -1.5770786003       -3.2916108345       -1.6840257021
 O         -2.2528254243       -0.8845341638       -2.0124497994
