  62
        -98.93582532
 C         -2.4945699741       -1.0102198194        0.5799209682
 C         -2.6262845742        0.2788389377        1.1581695746
 C         -3.9199350234        0.9460957359        0.9796010303
 C         -4.9082982117        0.3131847204        0.3222826032
 C         -6.2972918846        0.8411198114        0.0850749323
 C         -6.4153373477        1.7641957042       -1.1352578462
 C         -5.7928275929        3.1503501453       -0.9643245694
 H         -6.1348296468        3.7609029572       -1.8022913709
 H         -6.1732124719        3.6083861014       -0.0508588618
 C         -4.2577235501        3.1569129683       -0.9443629182
 H         -3.8823198153        2.2151991670       -1.3517563124
 H         -3.8876705571        3.9547131624       -1.5922716806
 C         -3.6414404969        3.3755837076        0.4377115307
 H         -3.8989111524        4.3731591886        0.8008336924
 H         -2.5534893456        3.3231003284        0.3406304186
 C         -4.0713956935        2.3465267839        1.4915068874
 H         -3.4195225180        2.4541208050        2.3621089185
 H         -5.1007037925        2.5302985373        1.7993604788
 H         -7.4797398574        1.8910054015       -1.3455718078
 H         -5.9630758682        1.2653755832       -1.9953653088
 H         -6.6456131996        1.3659029387        0.9750884186
 H         -6.9358790935       -0.0295057990       -0.0787064737
 O         -4.7533475926       -0.9303141728       -0.1991810861
 C         -3.5441223639       -1.6142735876       -0.1149320587
 O         -3.5617996449       -2.7193101314       -0.6852636887
 O         -1.7031182193        0.8412475661        1.8088875583
 C         -1.1534660669       -1.6981017786        0.7561960101
 C         -0.2174215758       -1.3886363924       -0.3850410223
 C         -0.6336880723       -1.4824286951       -1.7093710080
 C          0.2448600524       -1.2011304888       -2.7395221657
 C          1.5488183665       -0.8245625835       -2.4711730283
 C          1.9787759512       -0.7372165024       -1.1516499140
 C          1.0922229408       -1.0148165677       -0.1198070108
 H          1.4294718871       -0.9187191697        0.9012117481
 N          3.3148772896       -0.4130872590       -0.8628805814
 S          3.6850445907        0.4841875993        0.5186988094
 O          3.5772414512       -0.3738240902        1.6713236966
 O          2.9112477397        1.7050203384        0.5440841189
 C          5.4020030327        0.8417108442        0.1984379592
 C          6.3312187860       -0.1608410468        0.4038844668
 C          7.6655319453        0.0972253342        0.1338278821
 C          8.0467726726        1.3462511365       -0.3340615362
 C          7.1034252122        2.3429322166       -0.5329137571
 C          5.7665681829        2.0909265603       -0.2662139608
 H          4.9993026829        2.8369682649       -0.3980184828
 H          7.4031799558        3.3138484021       -0.8931610512
 H          9.0862240909        1.5449805178       -0.5421650524
 H          8.4022340127       -0.6742181644        0.2897907205
 H          5.9895490685       -1.1118551831        0.7776375640
 H          3.8078687293       -0.0522782242       -1.6688755315
 H          2.2313114440       -0.6042492247       -3.2778965900
 H         -0.0907019075       -1.2736384715       -3.7632038684
 H         -1.6484431452       -1.7847903891       -1.9202766653
 H         -0.7203803077       -1.2397963353        1.6609141670
 C         -1.2722819666       -3.1933950183        1.0205198633
 C         -0.8496009027       -4.2409222116        0.0392657223
 C         -0.0390359749       -4.0084034289        1.2766333333
 H         -0.0638187404       -4.7488069534        2.0618117640
 H          0.9141490488       -3.5120584504        1.1674667932
 H         -1.4541887367       -5.1320443985       -0.0295146484
 H         -0.4431042391       -3.9180035780       -0.9059848469
 H         -2.1430507456       -3.4265151092        1.6251278583
