  62
        -98.93490051
 C         -2.2851515278       -1.0304925669        0.0151701196
 C         -3.3426812492       -0.6727934112        0.8858462891
 C         -4.3404215999        0.2816407328        0.3695880436
 C         -4.2054219914        0.7485771384       -0.8846154580
 C         -5.0786029702        1.7269527825       -1.6289234490
 C         -6.5974064840        1.5347205314       -1.4982573230
 C         -7.2794839193        2.6236213956       -0.6681291360
 H         -6.8193489649        3.5840055944       -0.9096715815
 H         -8.3293425672        2.6822252586       -0.9638741326
 C         -7.2374077174        2.4098237884        0.8439540094
 H         -7.9077893905        1.5902295929        1.1117791968
 H         -7.6264640102        3.3148267474        1.3164684352
 C         -5.8537881397        2.1101064560        1.4241414608
 H         -5.0973064967        2.7354067374        0.9514170507
 H         -5.8711855386        2.3770978956        2.4829335296
 C         -5.4510378782        0.6312392192        1.3223579345
 H         -5.0989860951        0.2787909609        2.2967725977
 H         -6.3269597376        0.0217475370        1.0820611839
 H         -6.8124043080        0.5511366929       -1.0836084767
 H         -7.0233648281        1.5613714518       -2.5025811465
 H         -4.8050719316        2.7389043565       -1.3199298004
 H         -4.7811776299        1.6311091843       -2.6756508567
 O         -3.1663047059        0.3809958998       -1.6868012743
 C         -2.1827207096       -0.4995461484       -1.2695086781
 O         -1.3070932287       -0.7213140300       -2.1277638373
 H          0.9070311790       -1.6660009107       -1.1548801256
 C          1.0436428326       -1.1657428735       -0.2089683520
 C          0.0529763523       -1.2399383383        0.7579275138
 C          0.2437654657       -0.5644072768        1.9600985690
 C          1.3961008029        0.1650355484        2.1847647433
 C          2.3783538681        0.2450336604        1.2128512123
 C          2.1955089110       -0.4201961313        0.0083531384
 N          3.1732035960       -0.3190219305       -0.9947906649
 S          4.7777154184       -0.5922750453       -0.5969688721
 O          5.4134929010       -0.9949704797       -1.8324690094
 O          4.8993488207       -1.5065225614        0.5151297187
 C          5.3849111564        1.0159940441       -0.1321287011
 C          5.2475060583        2.0500429117       -1.0372829752
 C          5.7217596777        3.3062671850       -0.6951523993
 C          6.3245301144        3.5057404478        0.5380685304
 C          6.4582111892        2.4565489967        1.4344002986
 C          5.9853544205        1.1974614058        1.0983125836
 H          6.0628713347        0.3533992687        1.7650572354
 H          6.9275091164        2.6135543149        2.3923051324
 H          6.6923560363        4.4848528120        0.8015695453
 H          5.6195933474        4.1244594253       -1.3898219199
 H          4.7759513936        1.8532438651       -1.9857988534
 H          2.9210569515       -0.7810572921       -1.8560949123
 H          3.2778131108        0.8150572680        1.3789066346
 H          1.5314623298        0.6795870109        3.1239101032
 H         -0.5294617560       -0.6141988649        2.7139206443
 C         -1.2325205879       -1.9973147833        0.5320372947
 H         -1.6032679483       -2.3304294056        1.5107089692
 C         -1.0730068283       -3.2085508953       -0.3631432484
 C         -0.3172691985       -4.3978434434        0.1472624498
 C         -1.8038383341       -4.4718750502       -0.0257273554
 H         -2.2002890522       -5.0685393062       -0.8335814222
 H         -2.4216817877       -4.4710117134        0.8601617861
 H          0.3101470848       -4.9455301282       -0.5395009006
 H          0.0763132245       -4.3432960509        1.1511352635
 H         -0.9773687278       -2.9609621809       -1.4131624139
 O         -3.4507161169       -1.1326879727        2.0544532179
