  62
        -98.94790243
 C          0.9829476376        0.9950026574        0.7139229215
 C          1.6019563462        0.8831206176       -0.5542026956
 C          2.2934619972       -0.3852152487       -0.8143097806
 C          2.2512060997       -1.3707762142        0.0994795693
 C          2.8669085713       -2.7370408034       -0.0413949666
 C          4.3576434069       -2.7941612399        0.3199345075
 C          5.2998019832       -2.1437706282       -0.6935933984
 H          6.3144549034       -2.4471949930       -0.4281590327
 H          5.0908875376       -2.5399299452       -1.6878783686
 C          5.2353907475       -0.6104513638       -0.7248773107
 H          4.7499074401       -0.2473168692        0.1836942855
 H          6.2488830017       -0.2033221006       -0.7323878338
 C          4.5062206654       -0.0320657121       -1.9377299693
 H          5.0560433215       -0.2782908818       -2.8488902941
 H          4.4861213264        1.0563078405       -1.8401233588
 C          3.0595355683       -0.5189682191       -2.0948025499
 H          3.0427315002       -1.5522520899       -2.4424426772
 H          2.5609534971        0.1039833005       -2.8419634987
 H          4.6295016792       -3.8482811652        0.4111931742
 H          4.4970848882       -2.3279151556        1.2978118379
 H          2.3235351758       -3.3961120425        0.6396282466
 H          2.7208411884       -3.0981134423       -1.0604116703
 O          1.6000137975       -1.2427355501        1.2867235482
 C          0.9569310245       -0.0610926696        1.6230933890
 O          0.4013057374       -0.0791774294        2.7401726020
 O          1.5826201241        1.7933420094       -1.4236945780
 C          0.2135368042        2.2539238618        1.0739032126
 C         -0.9241653370        2.4242868143        0.0954947119
 C         -1.2491134674        3.6270924791       -0.5168316527
 C         -2.2874928532        3.6850024269       -1.4311254794
 C         -3.0082667493        2.5525050550       -1.7629037164
 C         -2.6991572803        1.3464313827       -1.1434993821
 C         -1.6830433656        1.3002682519       -0.2051328753
 H         -1.4475908104        0.3625577359        0.2769394194
 N         -3.4099826569        0.1718715701       -1.4321716052
 S         -2.6123414204       -1.2995184081       -1.4228822047
 O         -1.2535261811       -1.1880409409       -1.9004662920
 O         -3.4784763045       -2.1750889659       -2.1866855012
 C         -2.6372757624       -1.8147878214        0.2799696556
 C         -3.7877314495       -1.6299629982        1.0206065138
 C         -3.8053392098       -2.0506501381        2.3405177079
 C         -2.6820758129       -2.6475672849        2.8926621554
 C         -1.5377905848       -2.8332355739        2.1332647952
 C         -1.5148820060       -2.4160344767        0.8125531634
 H         -0.6390244886       -2.5243186839        0.1908196131
 H         -0.6585064815       -3.2837590356        2.5649467151
 H         -2.6937000295       -2.9663897907        3.9229404611
 H         -4.6920325397       -1.9074439364        2.9369061462
 H         -4.6385446587       -1.1570183422        0.5592715154
 H         -4.0715637474        0.2424579778       -2.1916157599
 H         -3.7993535024        2.5961849136       -2.4958298127
 H         -2.5272774904        4.6240114227       -1.9066419299
 H         -0.6828488921        4.5154147915       -0.2898310657
 H         -0.2165669690        2.0738279858        2.0702762940
 C          1.1383720972        3.4500711705        1.1467341100
 C          0.8178782639        4.5973052538        2.0559067919
 C          1.9433134696        3.6668620276        2.3917079892
 H          2.9575150600        4.0239682332        2.2942578807
 H          1.8039121689        2.9636360082        3.2000502496
 H          1.0622050063        5.5972176812        1.7303955059
 H         -0.0844998808        4.5316916278        2.6446071637
 H          1.6166949402        3.6637274265        0.1979014679
