  62
        -98.93575294
 C          2.1499672405        1.0304541532        0.0030958930
 C          3.4233077849        0.9860208949        0.6146271942
 C          4.4098725887        0.0693453815        0.0176204353
 C          4.0619968032       -0.6666080600       -1.0548329991
 C          4.8598055093       -1.6459823293       -1.8905193188
 C          6.1873862350       -2.2059969232       -1.3858943290
 C          6.0746905968       -3.1228655252       -0.1684895428
 H          7.0843033473       -3.3842273564        0.1558643814
 H          5.5738853331       -4.0452351733       -0.4732433346
 C          5.3040162173       -2.5508098150        1.0186796500
 H          5.3047339468       -3.3037608100        1.8114977201
 H          4.2629064746       -2.3852012139        0.7339740182
 C          5.8706464229       -1.2590026323        1.6047068775
 H          6.9242268708       -1.3991912306        1.8535905913
 H          5.3319414502       -1.0553645647        2.5340415977
 C          5.7387735307       -0.0123324410        0.7121443749
 H          6.5516549368        0.0480688288       -0.0074681700
 H          5.8032209413        0.8707188284        1.3545053163
 H          6.8875002599       -1.3989912439       -1.1911682959
 H          6.6059027364       -2.7965760870       -2.2054638142
 H          5.0382852687       -1.1426278586       -2.8472581482
 H          4.1789664829       -2.4762542970       -2.1034359672
 O          2.8201737063       -0.5791218647       -1.6180798706
 C          1.8377368886        0.2550589261       -1.1114983728
 O          0.7565937322        0.2116455493       -1.7290873236
 O          3.7262569198        1.6844925546        1.6191692627
 C          1.0907595735        1.9568271724        0.5691558633
 C         -0.1557619593        1.1857291510        0.9252220472
 C         -0.0366831334       -0.0135581510        1.6231673430
 C         -1.1533963503       -0.7489683499        1.9685875834
 C         -2.4198294511       -0.3035612830        1.6294189321
 C         -2.5520696403        0.8922061923        0.9390300660
 C         -1.4274140328        1.6317742704        0.5983737856
 H         -1.5549281076        2.5584880456        0.0597848884
 N         -3.8531984967        1.3443292433        0.5992999684
 S         -4.5121366493        0.6186686621       -0.7747068945
 O         -3.5730916640        0.6200702572       -1.8749200515
 O         -5.7547511542        1.3219912720       -1.0097405683
 C         -4.8473990473       -1.0475770671       -0.2571347456
 C         -3.9763344864       -2.0533570725       -0.6269745232
 C         -4.2352880495       -3.3482016114       -0.2054920169
 C         -5.3527031849       -3.6106949505        0.5729664354
 C         -6.2181618085       -2.5884252953        0.9336081447
 C         -5.9655103182       -1.2912949082        0.5164704753
 H         -6.6115822093       -0.4661733124        0.7662779855
 H         -7.0861258273       -2.7984039873        1.5375541800
 H         -5.5498194394       -4.6197837202        0.8990473436
 H         -3.5627849071       -4.1435604316       -0.4843174213
 H         -3.1176149819       -1.8009642207       -1.2294916106
 H         -3.8858098915        2.3455777206        0.4546612497
 H         -3.2967689980       -0.8645594666        1.9071871480
 H         -1.0395353877       -1.6759431704        2.5095105830
 H          0.9517808657       -0.3637937500        1.8880411220
 H          1.5215872653        2.3619383807        1.4974608188
 C          0.8403556479        3.1033362405       -0.3889360728
 C          0.4317575308        4.4500850014        0.1274862225
 C          1.8113484123        4.2439193020       -0.4196944397
 H          2.0611557565        4.6829541838       -1.3739316926
 H          2.6381304770        4.2067757431        0.2743225940
 H         -0.2659241532        5.0355469625       -0.4531096402
 H          0.3233332350        4.5647867416        1.1954969180
 H          0.4293844262        2.7697404479       -1.3365724936
