  62
        -98.94419169
 C          1.9797255972        1.3102135225        0.0347397452
 C          2.3004856598        0.3468797258       -0.9521822943
 C          3.7075804126       -0.0799509058       -0.9976861542
 C          4.5920372746        0.4543598141       -0.1367680197
 C          6.0391486840        0.0691873177       -0.0408925581
 C          6.2467391402       -1.0629681838        0.9748503379
 C          5.2913638094       -2.2421286623        0.7902354656
 H          5.5510206713       -2.9914653719        1.5412079758
 H          4.2716605140       -1.9136644101        1.0052445084
 C          5.3333954734       -2.8814047097       -0.6047945679
 H          6.2533220622       -2.5952585264       -1.1161111385
 H          5.3501002375       -3.9674608892       -0.4914609683
 C          4.1342972123       -2.5453658724       -1.4934947516
 H          3.2073292108       -2.7438034257       -0.9488757985
 H          4.1546400267       -3.2144217136       -2.3580495707
 C          4.0821740636       -1.1083618904       -2.0275663800
 H          5.0348266321       -0.8555908486       -2.4973122187
 H          3.3002711444       -1.0669310276       -2.7914847943
 H          7.2778366641       -1.4123752350        0.8963315657
 H          6.1003807565       -0.6587778056        1.9791706914
 H          6.3937801759       -0.2395889671       -1.0222874630
 H          6.6069129619        0.9433557727        0.2822093315
 O          4.2499291202        1.3855820466        0.7892104316
 C          2.9421398546        1.8198825148        0.9112274319
 O          2.7627557373        2.6557307035        1.8190305172
 H         -0.9383167448       -0.0905584227       -1.0423192676
 C         -0.9786973171       -0.1815519025        0.0315558624
 C         -0.2720832478        0.7108337732        0.8236105037
 C         -0.3148676090        0.5524161079        2.2054513562
 C         -1.0479491540       -0.4710144931        2.7783646462
 C         -1.7478774375       -1.3632790703        1.9844444572
 C         -1.7010765927       -1.2190151764        0.6047780485
 N         -2.4159498262       -2.1251422994       -0.2105812286
 S         -4.0838210412       -2.0453914689       -0.0752787595
 O         -4.4723165615       -2.5337985788        1.2231870868
 O         -4.6081347331       -2.7637765592       -1.2142859447
 C         -4.4521611462       -0.3059512365       -0.2124740210
 C         -4.4579930221        0.4741754687        0.9263340625
 C         -4.6549050621        1.8398221034        0.7994776369
 C         -4.8401182634        2.3985669558       -0.4555179394
 C         -4.8341118595        1.6004576967       -1.5892502434
 C         -4.6310860505        0.2353100735       -1.4698293976
 H         -4.6216228546       -0.4211688765       -2.3253244103
 H         -4.9822917568        2.0374947552       -2.5638912524
 H         -4.9897442348        3.4625309023       -0.5507566340
 H         -4.6598452486        2.4627256153        1.6794912690
 H         -4.3150172191        0.0019677460        1.8843145551
 H         -2.1532400309       -2.0600336064       -1.1843941043
 H         -2.3335947457       -2.1617668321        2.4107644995
 H         -1.0733370710       -0.5776736867        3.8523709482
 H          0.2437940651        1.2394130204        2.8258734842
 C          0.5588566023        1.8193628762        0.2253795290
 H          0.6294754175        2.6246876358        0.9680399295
 C         -0.0322106826        2.3843096163       -1.0503797549
 C         -1.3155574623        3.1542447696       -0.9748780258
 C         -0.0298103039        3.8661162039       -1.2676204973
 H          0.1390309682        4.2388690689       -2.2668009144
 H          0.4012136168        4.4845314896       -0.4938736734
 H         -1.7594137871        3.2842652542        0.0004365300
 H         -2.0344046101        3.0377167443       -1.7710457944
 H          0.1326936842        1.7587630363       -1.9180068689
 O          1.4697946922       -0.1370379728       -1.7656293230
