  62
        -98.94487212
 C          2.6466261275        0.3232268727       -0.0088768149
 C          2.4381859535        1.4336790489       -0.8598781657
 C          1.7583807034        2.5838802644       -0.2568939596
 C          1.3827638217        2.5337789838        1.0343932890
 C          0.6324036852        3.6051217122        1.7773020871
 C         -0.8859162206        3.5360281463        1.5566047320
 C         -1.3662336812        4.0412844930        0.1945996472
 H         -2.4469459532        4.1792973548        0.2683682999
 H         -0.9256144582        5.0183267097       -0.0083187954
 C         -1.0695002110        3.0847661932       -0.9692010361
 H         -0.8597535757        2.0899159584       -0.5669086663
 H         -1.9556995919        2.9972308706       -1.6035457393
 C          0.0839533143        3.5205257570       -1.8737174082
 H         -0.1863052354        4.4446478776       -2.3900287322
 H          0.2388945407        2.7458340662       -2.6294665558
 C          1.4159904474        3.7419544755       -1.1461672958
 H          2.2050366899        3.8272225576       -1.8977339611
 H          1.3809723100        4.6651820037       -0.5687263895
 H         -1.2060007924        2.4991776975        1.6923996826
 H         -1.3585743042        4.1396360463        2.3351801791
 H          0.8349044968        3.4487528107        2.8389153837
 H          1.0043379550        4.5896692949        1.4915301376
 O          1.6549184739        1.4712365831        1.8362772850
 C          2.2372120918        0.3228689998        1.3258852528
 O          2.3564383302       -0.6041981348        2.1508430070
 H          0.6461997733       -0.6228068534       -1.2819436533
 C          0.7971056676       -1.6100111693       -0.8608022015
 C          2.0771818926       -1.9990592188       -0.4846495460
 C          2.2459617129       -3.2710839542        0.0444552308
 C          1.1548291004       -4.1036133798        0.2353074222
 C         -0.1246776271       -3.6847205688       -0.0824125412
 C         -0.2960724003       -2.4277093689       -0.6428002440
 N         -1.6139798624       -1.9465762172       -0.9021487896
 S         -2.1793450888       -1.1599084100        0.4948711510
 O         -1.4250232554        0.0526218076        0.7285835605
 O         -2.1986515494       -2.1258498293        1.5634256387
 C         -3.8485345944       -0.7555178303        0.0148302829
 C         -4.7601418855       -1.7870658103       -0.1036873578
 C         -6.0531167783       -1.4940916776       -0.5059012703
 C         -6.4102918032       -0.1823292802       -0.7822100354
 C         -5.4841187894        0.8417673037       -0.6578646028
 C         -4.1880978194        0.5551275968       -0.2573024154
 H         -3.4352781070        1.3188570746       -0.1431883246
 H         -5.7642057266        1.8608505098       -0.8709503341
 H         -7.4175058654        0.0435777081       -1.0948804748
 H         -6.7767567291       -2.2872425708       -0.6026618257
 H         -4.4373478103       -2.7880966799        0.1285740814
 H         -1.5950146351       -1.2467799420       -1.6357289495
 H         -0.9867784691       -4.3004722345        0.1139100368
 H          1.3024307395       -5.0833176504        0.6638485551
 H          3.2298754409       -3.6021713800        0.3349100412
 C          3.1763847870       -0.9706984382       -0.6055358289
 H          3.3469924813       -0.7571045451       -1.6712646876
 C          4.4833911738       -1.3917838857        0.0272608195
 C          5.4504412904       -2.2413965679       -0.7409899045
 C          5.7607466383       -0.7983689534       -0.4841151447
 H          6.5349309060       -0.5534652705        0.2272223998
 H          5.6890903305       -0.1033384359       -1.3078918586
 H          6.0165351271       -2.9890339158       -0.2064740590
 H          5.1746573826       -2.5290355217       -1.7442017603
 H          4.3952239849       -1.5487263060        1.0962936708
 O          2.7820012518        1.4515293591       -2.0740143231
