  62
        -98.93909028
 C         -2.3573510902       -1.1870550520       -0.0849217873
 C         -3.4438943830       -0.8641302805        0.7626522943
 C         -4.3865198587        0.1668775543        0.2883674610
 C         -4.1568782970        0.7518859127       -0.9019395723
 C         -4.9450042817        1.8456264140       -1.5727808097
 C         -4.6923644922        3.2274242298       -0.9495974487
 C         -4.6973696979        3.2535637100        0.5764659621
 H         -3.9317930379        2.5699076658        0.9481874264
 H         -4.4110044869        4.2606091186        0.8911698619
 C         -6.0377431870        2.9228512023        1.2288286850
 H         -6.7929887506        3.6261502723        0.8712511615
 H         -5.9209187974        3.0797416411        2.3041116631
 C         -6.5555294647        1.4990749362        1.0118884510
 H         -6.9965776488        1.3861679226        0.0251793065
 H         -7.3615720082        1.3333429854        1.7325434277
 C         -5.5226547966        0.4032760153        1.2543521200
 H         -5.0590418049        0.5573202037        2.2353333568
 H         -6.0450817620       -0.5578015714        1.3316828726
 H         -5.4446876450        3.9199725798       -1.3310653672
 H         -3.7120353622        3.5752613643       -1.2852771187
 H         -6.0037092215        1.6041872435       -1.5616463646
 H         -4.6199690728        1.8704460773       -2.6153351822
 O         -3.0855291257        0.4214214783       -1.6784731472
 C         -2.1658477447       -0.5412134293       -1.3054097490
 O         -1.2569680210       -0.7249578559       -2.1394349796
 O         -3.6271484808       -1.4164101928        1.8806395024
 C         -1.3713846083       -2.2433664780        0.3870514544
 C         -0.0627693948       -1.5612689761        0.6989032212
 C          0.1048418992       -0.9413107699        1.9343221225
 C          1.2656196570       -0.2499727171        2.2250863790
 C          2.2797311571       -0.1523020837        1.2876654384
 C          2.1139096572       -0.7506858517        0.0465347359
 C          0.9567777121       -1.4655244666       -0.2349080702
 H          0.8368338586       -1.9141901567       -1.2082095186
 N          3.1308658431       -0.6484057342       -0.9182494811
 S          3.8238766680        0.8564924622       -1.1872208515
 O          2.9084371418        1.9352604776       -0.8940951501
 O          4.3412475071        0.7994538838       -2.5372977781
 C          5.1947670092        0.8908775052       -0.0489858050
 C          5.3615877725        1.9695235694        0.7972403805
 C          6.4418030085        1.9795782574        1.6662336251
 C          7.3318778579        0.9167176279        1.6729914345
 C          7.1519629140       -0.1579769507        0.8148233016
 C          6.0750702527       -0.1735336305       -0.0569874350
 H          5.9006843422       -0.9877058345       -0.7402468902
 H          7.8460483448       -0.9828657058        0.8230331465
 H          8.1706669677        0.9261230693        2.3509592450
 H          6.5829294789        2.8146304299        2.3335458848
 H          4.6399886334        2.7703448070        0.7616085083
 H          2.8920607801       -1.0885896445       -1.7956392585
 H          3.1822988054        0.3961211351        1.5023558328
 H          1.3832330846        0.2214612399        3.1889812541
 H         -0.6958711365       -0.9981950719        2.6584875874
 H         -1.7885811881       -2.6278483897        1.3273731591
 C         -1.2485763521       -3.3888026511       -0.5955144221
 C         -0.6049112954       -4.6674564311       -0.1520420669
 C         -2.0826211858       -4.6170132700       -0.3947244716
 H         -2.4811080744       -5.1154607881       -1.2657247482
 H         -2.7429273854       -4.6378957278        0.4597459622
 H          0.0137353424       -5.2046932038       -0.8544425946
 H         -0.2606860485       -4.7209862947        0.8695805529
 H         -1.0874546535       -3.0656224314       -1.6167827161
