  62
        -98.94014917
 C         -2.4931869104       -1.1623520300       -0.0187806095
 C         -2.5823698402        0.0045413498       -0.8153303098
 C         -3.9360371902        0.5469270198       -1.0033650300
 C         -4.9840940103       -0.0848483700       -0.4440323699
 C         -6.4046835702        0.3957543901       -0.5006449901
 C         -6.7310209903        1.2980176903        0.6980230497
 C         -5.7008296403        2.4013735403        0.9400257295
 H         -6.0498411903        2.9908353505        1.7906206494
 H         -4.7516862103        1.9462256603        1.2325208697
 C         -5.4672303101        3.3269746501       -0.2620587806
 H         -5.4522768801        4.3607195601        0.0894790992
 H         -6.2951109901        3.2359607800       -0.9660777007
 C         -4.1478434901        3.0882855599       -0.9987447305
 H         -3.3217098101        3.0856402999       -0.2829095904
 H         -3.9843679300        3.9243273197       -1.6839795706
 C         -4.0700385401        1.7981811897       -1.8248165202
 H         -4.9332505900        1.7331275696       -2.4902235103
 H         -3.1653704200        1.8506215495       -2.4377476002
 H         -7.7137516703        1.7444974403        0.5362842895
 H         -6.7832097204        0.6761248705        1.5946567298
 H         -6.5627116501        0.9375938899       -1.4309442603
 H         -7.0635306903       -0.4738067599       -0.4797500800
 O         -4.8598759104       -1.2191949199        0.2921823703
 C         -3.6157846205       -1.7765881399        0.5357178905
 O         -3.6399998106       -2.7993564597        1.2503149507
 H          1.4053314397       -0.9208016003       -0.4393123092
 C          1.0176053696       -0.4463535502        0.4461430206
 C         -0.2408359904       -0.7662474300        0.9278197206
 C         -0.6987422005       -0.1256584197        2.0772277304
 C          0.0811184795        0.8152631103        2.7199846303
 C          1.3385908796        1.1317432102        2.2361521104
 C          1.8040991996        0.5006036199        1.0890923905
 N          3.0603855897        0.8303589898        0.5572968806
 S          3.9637723897       -0.3523905304       -0.2348025391
 O          3.4827605898       -0.4944908607       -1.5855958592
 O          4.0063587696       -1.5600095503        0.5594743511
 C          5.5627392397        0.4374747495       -0.2488055992
 C          5.8036983899        1.4200483093       -1.1908067293
 C          7.0318819299        2.0616645792       -1.1902035093
 C          7.9933381698        1.7125214193       -0.2531787892
 C          7.7380476197        0.7230741795        0.6842313910
 C          6.5109156896        0.0783275096        0.6902197910
 H          6.2703852895       -0.7016928203        1.3945760511
 H          8.4888594996        0.4516844396        1.4087541311
 H          8.9486075898        2.2132533393       -0.2556922092
 H          7.2348593100        2.8296189291       -1.9191374695
 H          5.0296307299        1.6509882892       -1.9041586494
 H          3.6290941597        1.3723747398        1.1931288705
 H          1.9490012596        1.8679556502        2.7366843603
 H         -0.2892230805        1.3036686705        3.6090016402
 H         -1.6805217305       -0.3778076396        2.4563414304
 C         -1.1368419804       -1.7833692701        0.2634234707
 H         -1.3167906105       -2.5980836199        0.9807362108
 C         -0.5509108104       -2.3734318403       -1.0014614991
 C          0.4451896296       -3.4892015204       -0.9159608388
 C         -0.9428709604       -3.7594907404       -1.4121214489
 H         -1.0846632803       -3.9653342806       -2.4624047689
 H         -1.6230837805       -4.2942358002       -0.7650211589
 H          0.7142942595       -3.8437396902        0.0679333812
 H          1.2625902496       -3.5042056206       -1.6217148488
 H         -0.4220269903       -1.6368694205       -1.7869466793
 O         -1.5869004202        0.5690081397       -1.3398325998
