  62
        -98.94964239
 C          1.6909829925        1.2147626702        0.3382631061
 C          1.3288837538        0.1562011158       -0.5270184955
 C          1.8718179678       -1.1622324793       -0.1881489488
 C          2.6238865846       -1.3093418508        0.9172750046
 C          3.2179104505       -2.5978242913        1.4184841565
 C          4.5470380010       -2.9789312241        0.7515150563
 C          4.4360585701       -3.4656549866       -0.6939243527
 H          3.6918729448       -4.2606135704       -0.7506364231
 H          5.4011014620       -3.9021390924       -0.9588300232
 C          4.0961452071       -2.3650323418       -1.7083723695
 H          4.7528325346       -2.4550858910       -2.5764815506
 H          4.2872664417       -1.3870058225       -1.2609257120
 C          2.6568662256       -2.4003560970       -2.2219620399
 H          2.4906275002       -3.3218597995       -2.7839871556
 H          2.5157596356       -1.5579866310       -2.9034711738
 C          1.5928087644       -2.3018458230       -1.1207441872
 H          1.5324563305       -3.2379709852       -0.5655197022
 H          0.6234007560       -2.1167895227       -1.5900995680
 H          4.9916781088       -3.7783841715        1.3487241371
 H          5.2182100118       -2.1181209426        0.7964911042
 H          2.4953474115       -3.4046695622        1.2898857873
 H          3.3942119817       -2.4616213569        2.4879332377
 O          2.9238427407       -0.2718799625        1.7442327983
 C          2.4671313749        1.0085992566        1.4765895456
 O          2.8134511861        1.8661018026        2.3168144313
 O          0.5829392332        0.3055473125       -1.5308800444
 C          1.1590899168        2.6119138916        0.0757574266
 C         -0.3468896735        2.5715014177       -0.0258149653
 C         -1.0702647292        3.2972270763       -0.9642446868
 C         -2.4498526285        3.1957191319       -1.0185542986
 C         -3.1332593941        2.3556739988       -0.1583858571
 C         -2.4189473595        1.6352522888        0.7917470310
 C         -1.0432047832        1.7715055372        0.8712519317
 H         -0.5040738940        1.2064616877        1.6180760349
 N         -3.0608529322        0.7495696080        1.6832420851
 S         -2.6602462247       -0.8750143069        1.5687861773
 O         -3.5007794723       -1.5347951815        2.5456390441
 O         -1.2395346932       -1.0492313371        1.7270248398
 C         -3.1868955231       -1.3458420314       -0.0699997587
 C         -4.4043253017       -1.9844487169       -0.2131790990
 C         -4.8541785778       -2.2975166962       -1.4853056807
 C         -4.0867290241       -1.9585070396       -2.5897165048
 C         -2.8704744812       -1.3135688044       -2.4285414615
 C         -2.4109422640       -0.9998823380       -1.1580386511
 H         -1.4647110584       -0.5009315252       -1.0140865336
 H         -2.2670210203       -1.0454645171       -3.2810495834
 H         -4.4366188373       -2.1986074219       -3.5813462633
 H         -5.7993035443       -2.8006823455       -1.6112436782
 H         -4.9638175199       -2.2299047125        0.6751279816
 H         -4.0683812935        0.8374525414        1.6862821520
 H         -4.2064615899        2.2548205262       -0.2189991171
 H         -2.9981068465        3.7639377680       -1.7542803851
 H         -0.5521447305        3.9377906661       -1.6591126757
 H          1.4315514196        3.2144697545        0.9550644530
 C          1.8265797024        3.2033318870       -1.1496247141
 C          2.0609129953        4.6801259745       -1.2485667915
 C          3.2145894651        3.7518950985       -1.0193025894
 H          3.9139602890        3.5851178803       -1.8247646769
 H          3.6654659497        3.7235975187       -0.0375983529
 H          1.9725363338        5.1533294929       -2.2149064002
 H          1.7363002620        5.2950010800       -0.4227461869
 H          1.5866462030        2.6585962166       -2.0556420568
