  62
        -98.94939243
 C         -0.4383203346       -1.8357861608       -0.1246646505
 C         -1.6129861544       -1.9520540439        0.6534936993
 C         -2.7664426663       -1.1730572465        0.1909211994
 C         -2.6545875180       -0.4034054259       -0.9073444503
 C         -3.7657017599        0.3860647916       -1.5476910002
 C         -4.0267615433        1.7623459308       -0.9220248897
 C         -4.6726867634        1.7402599987        0.4632727902
 H         -4.9849821859        2.7622782779        0.6877140305
 H         -5.5718354519        1.1236372065        0.4363731299
 C         -3.7479134424        1.2515048006        1.5872353101
 H         -3.8287916341        1.9229453701        2.4456852203
 H         -2.7049275324        1.2927180332        1.2613858903
 C         -4.0550413490       -0.1602009403        2.0874361496
 H         -3.3095572484       -0.4225095788        2.8429762496
 H         -5.0377223290       -0.1734137129        2.5651054195
 C         -4.0286146662       -1.2380356099        0.9963786192
 H         -4.0620535939       -2.2166731301        1.4820938889
 H         -4.9005671564       -1.1385393118        0.3496871492
 H         -4.6904857846        2.3060680694       -1.5986044096
 H         -3.0848364647        2.3112896130       -0.8681488794
 H         -3.4780224801        0.5312610627       -2.5911747501
 H         -4.6846253585       -0.2011945906       -1.5215864405
 O         -1.4968641882       -0.2946016928       -1.6112149001
 C         -0.3587069766       -0.9937755102       -1.2340097703
 O          0.6333653530       -0.7919674275       -1.9578028601
 H          0.8261259711       -0.1512302682        1.2554499102
 C          1.8185812020       -0.5020051257        1.0131477802
 C          1.9911717151       -1.7711669351        0.4779811198
 C          3.2833147162       -2.2005590518        0.1962800598
 C          4.3665001242       -1.3736537693        0.4352551902
 C          4.1870395110       -0.1006419799        0.9442725306
 C          2.8992083899        0.3366983869        1.2323099706
 N          2.6744418967        1.6229506662        1.7494016710
 S          1.3350100547        2.4943168331        1.2793197211
 O          1.6625463713        3.8610736638        1.6345751316
 O          0.1433364359        1.9665147500        1.8976752908
 C          1.2001689351        2.3794373033       -0.4953975489
 C         -0.0636331651        2.4856562405       -1.0360032590
 C         -0.2168925849        2.4667583705       -2.4114518291
 C          0.8984038855        2.3380462535       -3.2223248990
 C          2.1628773957        2.2361215464       -2.6664452689
 C          2.3214034755        2.2637796064       -1.2906323988
 H          3.2985710657        2.1813653186       -0.8437842688
 H          3.0277392261        2.1263277088       -3.3006841888
 H          0.7792248457        2.3078160836       -4.2938704190
 H         -1.2030093850        2.5365453783       -2.8425442492
 H         -0.9018746353        2.5645032882       -0.3604118991
 H          3.4933526253        2.2090290882        1.8201602713
 H          5.0306679594        0.5491309221        1.1212242509
 H          5.3636714950       -1.7213491667        0.2128334002
 H          3.4412018287       -3.1853720813       -0.2117268906
 C          0.7828664773       -2.6471762379        0.2586823293
 H          0.5286312383       -3.1242681689        1.2181114091
 C          1.0225906201       -3.7323546770       -0.7741021010
 C          1.5461510233       -5.0765024959       -0.3668320014
 C          0.1167161030       -4.9259522892       -0.7894397315
 H         -0.1887785959       -5.3306649496       -1.7425786017
 H         -0.6503953470       -4.9721650113       -0.0300552116
 H          2.2231899946       -5.5897538840       -1.0331076615
 H          1.7463062636       -5.2405452157        0.6813487286
 H          1.3332097792       -3.3282177959       -1.7312132108
 O         -1.6997361728       -2.6883642644        1.6747910490
