  62
        -98.94037936
 C         -2.3566136101       -0.0538045310        0.2177969598
 C         -3.4571145201       -0.2458686309        1.0865498998
 C         -4.7286541802        0.3478488687        0.6540047495
 C         -4.7728899203        1.0338950783       -0.5030457907
 C         -6.0138614304        1.6386089379       -1.0918954710
 C         -6.7212399201        0.6509882774       -2.0306419407
 C         -6.9260514799       -0.7383440424       -1.4266340603
 H         -7.4594394297       -1.3390891928       -2.1665187501
 H         -5.9515613298       -1.2080699122       -1.2741678601
 C         -7.7047003500       -0.7469913921       -0.1037413603
 H         -8.2447811501        0.1930122778        0.0145177294
 H         -8.4481426698       -1.5460186223       -0.1399507801
 C         -6.8440106100       -0.9956504616        1.1361364998
 H         -7.5107763900       -1.1969446714        1.9788462199
 H         -6.2308046598       -1.8875108715        0.9840768002
 C         -5.9214273302        0.1581290788        1.5486318595
 H         -6.4984465504        1.0820407387        1.6232303092
 H         -5.5181857202       -0.0768897508        2.5380761896
 H         -6.1204703601        0.5446851272       -2.9368086306
 H         -7.6877248502        1.0736982271       -2.3109583909
 H         -6.6842179405        1.9348766380       -0.2874448911
 H         -5.7277163905        2.5249508277       -1.6604136413
 O         -3.6890110803        1.2160230683       -1.3005026007
 C         -2.4556915402        0.6756513086       -0.9667982305
 O         -1.5504232002        0.9144880185       -1.7882444005
 H          1.5884223100       -0.6521049904       -0.3326151098
 C          1.3205260498        0.2433141698        0.2027790799
 C          0.0443055898        0.4076593797        0.7164197497
 C         -0.2485970505        1.5827476598        1.4047841893
 C          0.7067850493        2.5675959701        1.5612582791
 C          1.9837260994        2.3943421202        1.0563759192
 C          2.2886350896        1.2239732800        0.3734091096
 N          3.5701622797        1.0155429901       -0.1609745403
 S          4.2037661000       -0.5495648698       -0.1124149997
 O          3.7665628902       -1.2696411102       -1.2817276095
 O          3.9096684101       -1.1616140094        1.1634220405
 C          5.9485954099       -0.1995332895       -0.2376449097
 C          6.5097799100       -0.0274351598       -1.4888662098
 C          7.8593861799        0.2737379605       -1.5817558098
 C          8.6208416898        0.3982109610       -0.4291528798
 C          8.0441413598        0.2211682713        0.8196171802
 C          6.6949539099       -0.0795353189        0.9197670103
 H          6.2063953198       -0.2361267687        1.8680937703
 H          8.6393475897        0.3151313517        1.7135811402
 H          9.6711186398        0.6315929412       -0.5046534298
 H          8.3119494199        0.4089847703       -2.5508317498
 H          5.8804531700       -0.1422999202       -2.3560549198
 H          4.2426918995        1.7047476203        0.1461748595
 H          2.7331240492        3.1605389904        1.1848250590
 H          0.4596504891        3.4750478102        2.0917086888
 H         -1.2412951005        1.7136455298        1.8142435992
 C         -1.0165978000       -0.6578565306        0.5903048500
 H         -1.1628768300       -1.1043567103        1.5863783402
 C         -0.6481035897       -1.7586803308       -0.3823771496
 C          0.2073220005       -2.9066768205        0.0602374708
 C         -1.2510656295       -3.1193898309       -0.2101681292
 H         -1.5377911993       -3.6723494912       -1.0920406190
 H         -1.9104995295       -3.2654740407        0.6330221108
 H          0.9301379306       -3.3070174606       -0.6355290490
 H          0.5443824604       -2.9124300801        1.0862660909
 H         -0.5211824998       -1.3914886311       -1.3954445197
 O         -3.3774555100       -0.8787803705        2.1743316100
