  62
        -98.94405795
 C         -1.4819687237       -1.5274716858        0.3677663710
 C         -1.7782359213       -0.3680177645        1.1254155299
 C         -2.9206539692        0.4259118778        0.6600711488
 C         -3.5883903696        0.0504690685       -0.4460112812
 C         -4.7806997477        0.7500316309       -1.0407566223
 C         -4.4216505145        1.9349910893       -1.9480780231
 C         -3.9173602418        3.1828429187       -1.2221134339
 H         -3.9143138996        3.9961821581       -1.9503384046
 H         -4.6224783715        3.4529139410       -0.4354177644
 C         -2.5081013224        3.0457492458       -0.6288233332
 H         -1.9229778102        3.9356727642       -0.8689574236
 H         -1.9981497842        2.1962015942       -1.0891727223
 C         -2.4729096235        2.8782929170        0.8897658270
 H         -1.4320314739        2.7460733247        1.1916373375
 H         -2.8565187215        3.7819257383        1.3681519861
 C         -3.2666604266        1.6751510393        1.4125728476
 H         -2.9987376474        1.5163498995        2.4600122179
 H         -4.3371266361        1.8704494618        1.3516402270
 H         -3.6719280150        1.6056730669       -2.6711750725
 H         -5.3233387136        2.2033992810       -2.5035114137
 H         -5.4432997272        1.0878058431       -0.2433735128
 H         -5.3096972892        0.0057968916       -1.6399501219
 O         -3.2540957219       -1.0548282828       -1.1628228902
 C         -2.1971208340       -1.8693449650       -0.7803756890
 O         -2.0121131460       -2.8452395861       -1.5311607082
 O         -1.1260066009       -0.0192226852        2.1455992499
 C         -0.3333504960       -2.4141156282        0.8175747422
 C          0.7590514645       -2.3856138416       -0.2220344073
 C          1.0545062823       -3.4637828030       -1.0457747663
 C          2.0474660430       -3.3601632361       -2.0037623360
 C          2.7810498158       -2.1964710680       -2.1379203666
 C          2.5003531980       -1.1135443066       -1.3117543676
 C          1.4851096774       -1.2090187135       -0.3739157480
 H          1.2618650891       -0.3614960524        0.2596493112
 N          3.2346015509        0.0788073015       -1.4192679283
 S          3.7795326921        0.8352885214       -0.0251614887
 O          5.0074431338        1.4912749781       -0.4263840687
 O          3.8856224894       -0.0931647580        1.0749206721
 C          2.5730568149        2.0952635645        0.3199025698
 C          2.0092382446        2.1848736069        1.5761230195
 C          1.1407738669        3.2303673892        1.8471952883
 C          0.8510625696        4.1606599191        0.8608130274
 C          1.4165164199        4.0493586367       -0.4005128223
 C          2.2901286975        3.0103214144       -0.6752631311
 H          2.7620891977        2.8985485125       -1.6371394008
 H          1.1837057919        4.7717145166       -1.1662983330
 H          0.1782894214        4.9754571408        1.0777652764
 H          0.6931360767        3.3096149810        2.8251420480
 H          2.2544487925        1.4383883469        2.3150075802
 H          3.9610187911        0.0543927393       -2.1208817279
 H          3.5661072963       -2.1215163904       -2.8754717263
 H          2.2603011012       -4.2014276571       -2.6459917652
 H          0.4967429501       -4.3799719416       -0.9490703258
 H          0.0593848847       -1.9416592184        1.7294303420
 C         -0.8190540695       -3.8061102067        1.1624088631
 C          0.0309166881       -4.6949962881        2.0186278442
 C         -1.2318052508       -4.1065896546        2.5707285632
 H         -2.0778209024       -4.7579533525        2.7312888434
 H         -1.1515517092       -3.3092789042        3.2951239026
 H          0.0535432456       -5.7523981583        1.8034142051
 H          0.9720775088       -4.2965666600        2.3671187443
 H         -1.3982378302       -4.2630228460        0.3686433132
