  62
        -98.93552357
 C          1.9459604000        1.2231965996        0.1251226354
 C          2.7289320341        0.6255998190        1.1427297552
 C          3.9166968508       -0.1336557486        0.7153745884
 C          4.1733340982       -0.2687746318       -0.5989324508
 C          5.3179836672       -0.9419137582       -1.3269782830
 C          6.2463641034       -1.9097387093       -0.5977991375
 C          5.5864015367       -3.2119783961       -0.1458073249
 H          5.3441814188       -3.8048702602       -1.0315294940
 H          6.3124410360       -3.7764437815        0.4433906771
 C          4.3035109179       -3.0537933916        0.6666361101
 H          3.5350096675       -2.5825860662        0.0497403522
 H          3.9423679765       -4.0547656099        0.9188039936
 C          4.4470040812       -2.2694891434        1.9697214215
 H          5.2401327539       -2.7093797232        2.5772946510
 H          3.5081882147       -2.3728973487        2.5207701446
 C          4.7265503591       -0.7645929321        1.8113184935
 H          5.7866928247       -0.5724824828        1.6643645276
 H          4.4282328535       -0.2678094039        2.7391338441
 H          6.7240866482       -1.4137371081        0.2419830112
 H          7.0395222546       -2.1704882970       -1.3037914054
 H          4.8649313030       -1.4551621810       -2.1812433495
 H          5.9238370178       -0.1291902723       -1.7430846043
 O          3.3622155180        0.2836340513       -1.5466483428
 C          2.2327497633        1.0243968984       -1.2251961003
 O          1.5978545708        1.4255146209       -2.2168376105
 O          2.4470401017        0.7210021553        2.3676491897
 C          0.7167809398        2.0073485879        0.5486563382
 C         -0.4852247422        1.5404630408       -0.2334787484
 C         -1.2583546501        2.3701815805       -1.0333517589
 C         -2.3382671239        1.8600338193       -1.7337701434
 C         -2.6738035124        0.5221084604       -1.6486891527
 C         -1.9130146991       -0.3153279211       -0.8417064181
 C         -0.8375931685        0.1991007303       -0.1350073127
 H         -0.2410977518       -0.4564681523        0.4881997206
 N         -2.2469739724       -1.6760037246       -0.7421399918
 S         -3.8580873821       -2.0934770378       -0.5809200392
 O         -3.8487511418       -3.3711695051        0.0964809808
 O         -4.5004692655       -2.0712795184       -1.8713252222
 C         -4.5648219478       -0.8350293046        0.4679169775
 C         -4.0539624456       -0.6915201305        1.7428304531
 C         -4.5651696962        0.3014476725        2.5621802103
 C         -5.5737489182        1.1303561502        2.0946423403
 C         -6.0798950454        0.9699323268        0.8143800291
 C         -5.5706805233       -0.0205792720       -0.0103372573
 H         -5.9335482665       -0.1785654173       -1.0128214503
 H         -6.8656640093        1.6143117935        0.4546111732
 H         -5.9672022101        1.9047091334        2.7339946793
 H         -4.1729820477        0.4267587868        3.5587280243
 H         -3.2742667529       -1.3566225246        2.0784104108
 H         -1.6635038111       -2.2012613423       -0.1086944157
 H         -3.4974418504        0.1079351378       -2.2071463642
 H         -2.9222006538        2.5136000050       -2.3635799518
 H         -0.9996427799        3.4111540100       -1.1323178103
 H          0.5647070503        1.7186696724        1.6024362804
 C          0.8978797300        3.5174165496        0.5413082619
 C          2.2511220683        4.1332992182        0.7302224978
 C          1.5543404133        4.2468251607       -0.5908889456
 H          1.1572139820        5.2097908184       -0.8774762227
 H          1.9181399494        3.6611313161       -1.4200947638
 H          2.3325903206        5.0145084506        1.3487494122
 H          3.0988195486        3.4674800399        0.8050086006
 H          0.0708796675        4.0240184536        1.0292978780
