  62
        -98.94448983
 C          2.0763376291        0.8829411398       -0.3735679172
 C          1.2630024863        1.7820935544       -1.1068951819
 C          0.4488509176        2.7118801361       -0.3203477284
 C          0.5035077007        2.6690398779        1.0228938010
 C         -0.2968468082        3.5246227045        1.9664877968
 C         -1.7059594659        2.9732000504        2.2278675139
 C         -2.6991259352        3.1613209289        1.0796360329
 H         -3.6937462426        2.9589446518        1.4817446140
 H         -2.6835211581        4.2016200978        0.7517527383
 C         -2.4573575366        2.2329213479       -0.1188950672
 H         -1.8232586716        1.3996103792        0.1954765762
 H         -3.4076623695        1.8014010879       -0.4423943919
 C         -1.8329839041        2.9129950468       -1.3374514914
 H         -2.5314745336        3.6482573904       -1.7431113705
 H         -1.6621236580        2.1503829297       -2.1013725395
 C         -0.4965004855        3.6120737544       -1.0580539841
 H         -0.0351544959        3.8636345880       -2.0163926246
 H         -0.6613261877        4.5310479249       -0.4961586340
 H         -2.0991970752        3.4817058482        3.1116996609
 H         -1.6216314424        1.9082343710        2.4620482372
 H         -0.3637218085        4.5430459947        1.5821428861
 H          0.2484647043        3.5424169152        2.9126278147
 O          1.3225966863        1.8189259147        1.6927662145
 C          2.0727053070        0.8629325961        1.0235756443
 O          2.6958999936        0.0930673001        1.7796731568
 O          1.2042568098        1.7898430160       -2.3669929832
 C          2.7975195707       -0.2000930548       -1.1588242628
 C          2.3986548581       -1.5424340959       -0.5969892125
 C          3.2903715257       -2.5521157772       -0.2660483237
 C          2.8285115948       -3.7332089265        0.2912117725
 C          1.4840020392       -3.9191816052        0.5502908813
 C          0.5806707093       -2.9148425189        0.2154853427
 C          1.0407041903       -1.7589484669       -0.3883930284
 H          0.3425374511       -0.9732056646       -0.6393886064
 N         -0.7940172896       -3.0685495347        0.4642744401
 S         -1.7423073452       -1.8121706945        1.0472156679
 O         -0.9591270973       -0.6514297190        1.3945105039
 O         -2.5370333778       -2.3865249340        2.1145969824
 C         -2.8346184966       -1.4161452366       -0.3063162625
 C         -2.3989517983       -1.5052267372       -1.6126432901
 C         -3.2656078475       -1.1461420054       -2.6339049122
 C         -4.5466267052       -0.7087569212       -2.3360682943
 C         -4.9729532432       -0.6317392523       -1.0191366332
 C         -4.1100229445       -0.9858567169        0.0056069403
 H         -4.3991675040       -0.9436798355        1.0431827052
 H         -5.9705754029       -0.2950812248       -0.7870003988
 H         -5.2152061337       -0.4285091848       -3.1345481049
 H         -2.9337695801       -1.2084509021       -3.6580235118
 H         -1.4002549492       -1.8528919195       -1.8217468628
 H         -1.0315731169       -3.9238237129        0.9455066030
 H          1.1317174568       -4.8268770439        1.0168711781
 H          3.5307552735       -4.5111254470        0.5505044466
 H          4.3475732392       -2.4075412844       -0.4163453734
 H          2.3699292462       -0.1186957543       -2.1734121924
 C          4.2980980646       -0.0133401349       -1.3154018938
 C          4.9325680921        1.3330320413       -1.1390632965
 C          5.2067372145        0.2408347559       -0.1514573587
 H          6.1846776748       -0.2185603977       -0.1565958006
 H          4.7557941915        0.3050222550        0.8258952404
 H          5.7177594158        1.6249392320       -1.8203783319
 H          4.2941542419        2.1482290311       -0.8297058578
 H          4.7004775473       -0.6263921442       -2.1163685098
