  62
        -98.94427033
 C          1.3277925580        1.4348027837        0.6405585795
 C          2.1427789107        1.0225877071       -0.4437219753
 C          3.1190950484       -0.0329808311       -0.1439575357
 C          3.1784249678       -0.5677349172        1.0878748522
 C          4.1046238126       -1.6648487481        1.5357157543
 C          3.5894862692       -3.0719186086        1.2019661994
 C          3.6758180899       -3.4651508360       -0.2734848299
 H          4.6842134637       -3.2741415876       -0.6431189823
 H          3.5067085837       -4.5426610276       -0.3256581765
 C          2.6514955844       -2.7665178703       -1.1792914598
 H          1.8334257272       -2.3677314963       -0.5730405377
 H          2.2030213316       -3.5014897185       -1.8527305516
 C          3.2298486018       -1.6512721905       -2.0514453295
 H          2.4065867801       -1.1905338253       -2.6036749055
 H          3.9255853271       -2.0802880145       -2.7767596584
 C          3.9570434370       -0.5456844713       -1.2756709471
 H          4.9146546272       -0.9119090153       -0.9062667248
 H          4.1386222773        0.2866416911       -1.9603844938
 H          2.5511720177       -3.1531582290        1.5341161121
 H          4.1824328539       -3.7836118385        1.7815771590
 H          4.1915171697       -1.5779243874        2.6210097091
 H          5.0910817071       -1.5208454681        1.0941829720
 O          2.3731450662       -0.1533384918        2.1013388589
 C          1.4016428890        0.8115451924        1.8880985380
 O          0.6702923375        1.0244553885        2.8776606360
 O          2.0649409355        1.4938558246       -1.6069439690
 C          0.1865164088        2.4191505440        0.4449012937
 C         -0.6469903170        1.9731014985       -0.7337409651
 C         -1.1309162407        2.8144439162       -1.7258958800
 C         -1.9022583401        2.3019011664       -2.7561169379
 C         -2.2187361843        0.9566742704       -2.8147366736
 C         -1.7352146817        0.1060001415       -1.8263586317
 C         -0.9645975837        0.6231556751       -0.8007924310
 H         -0.5677623416       -0.0483869489       -0.0558863836
 N         -2.0051534066       -1.2694990010       -1.8412914851
 S         -2.1084949573       -2.1235076188       -0.4105746644
 O         -0.8037673279       -2.3073000669        0.1744078263
 O         -2.8101947882       -3.3359657835       -0.7756054344
 C         -3.1490733161       -1.1272635364        0.6427511863
 C         -4.4729523475       -0.9880353851        0.2710152941
 C         -5.3072911122       -0.1903124196        1.0356248516
 C         -4.8052469730        0.4583057561        2.1541383903
 C         -3.4771593522        0.3041146943        2.5182912302
 C         -2.6382327318       -0.4966839951        1.7583417057
 H         -1.5999407549       -0.6267877465        2.0234940886
 H         -3.0775706230        0.8051938718        3.3858170730
 H         -5.4514173389        1.0851946032        2.7480052677
 H         -6.3422146713       -0.0737545426        0.7575030119
 H         -4.8280594358       -1.5174157080       -0.5981101436
 H         -2.6731163468       -1.5800176349       -2.5301052413
 H         -2.8171159881        0.5641324623       -3.6222173797
 H         -2.2647983189        2.9636454970       -3.5280675862
 H         -0.8882576755        3.8641945962       -1.7081458221
 H         -0.4399619175        2.2970149507        1.3452215572
 C          0.5868435462        3.8858748271        0.4003994868
 C          1.9023513209        4.3484007377        0.9507526060
 C          1.6448694399        4.4065098359       -0.5235607329
 H          1.4949761939        5.3753662845       -0.9775467288
 H          2.1404611002        3.6923084014       -1.1609938771
 H          1.9285744639        5.2718271337        1.5100299351
 H          2.5823488690        3.5938610719        1.3200813714
 H         -0.2597562227        4.5404322410        0.5838111509
