  62
        -98.94185601
 C         -1.7151775611       -0.1160398535        0.4457975924
 C         -2.8212782412       -0.8447130440        0.9553049183
 C         -4.1372144597       -0.2150481672        0.8036359983
 C         -4.2284196283        1.0131685610        0.2634840992
 C         -5.4954027374        1.7985523403        0.0590071431
 C         -6.2477576643        1.4424609461       -1.2306100717
 C         -6.9542928110        0.0861767650       -1.2187322807
 H         -7.5831494647        0.0133252662       -0.3308782040
 H         -7.6141856197        0.0617609956       -2.0882467201
 C         -6.0088256646       -1.1215745547       -1.2831704967
 H         -6.3814924711       -1.8369632556       -2.0197792005
 H         -5.0242819172       -0.7945986104       -1.6263609655
 C         -5.8496334767       -1.8733045152        0.0385876655
 H         -5.1330355807       -2.6847572176       -0.1128626683
 H         -6.8054659930       -2.3178736720        0.3241653370
 C         -5.3464043523       -1.0067195771        1.2005593535
 H         -6.1390741673       -0.3441161894        1.5471021460
 H         -5.0564303075       -1.6673893529        2.0211418157
 H         -6.9995336864        2.2181969805       -1.3937917920
 H         -5.5453056422        1.4805336447       -2.0666670338
 H         -6.1548048687        1.6607231407        0.9164408649
 H         -5.2043417132        2.8500486087        0.0089548440
 O         -3.1379821772        1.7104067310       -0.1493653201
 C         -1.8588927295        1.1647347269       -0.0900835221
 O         -0.9742579701        1.9225720790       -0.5287729276
 O         -2.7114986493       -1.9666707306        1.5164332472
 C         -0.3477174154       -0.7669461137        0.5502910131
 C          0.6741202182        0.2119657373        1.0667862501
 C          0.5645029988        0.6678571268        2.3783177866
 C          1.4732645371        1.5729841546        2.8899435788
 C          2.5257120089        2.0251803911        2.1127753670
 C          2.6429576504        1.5775057306        0.8030400026
 C          1.7200388705        0.6775279471        0.2869161281
 H          1.8054800087        0.3858073379       -0.7456926042
 N          3.6978177662        2.0135527225       -0.0091394461
 S          4.3646897995        0.9917210168       -1.1443044990
 O          5.7130253053        1.4883442615       -1.3248068337
 O          3.5549409239        0.9425412659       -2.3352943095
 C          4.4096162903       -0.6181865040       -0.3728952339
 C          5.0051372984       -0.7433201026        0.8667096374
 C          5.0365183232       -1.9884924898        1.4730188598
 C          4.4788495161       -3.0840320153        0.8318115036
 C          3.8937814320       -2.9448019048       -0.4169296187
 C          3.8564071196       -1.7003590835       -1.0259294033
 H          3.4041825290       -1.5454194960       -1.9927081268
 H          3.4624523170       -3.7981144758       -0.9160631321
 H          4.5009089150       -4.0522819627        1.3064697168
 H          5.4933523121       -2.1006706692        2.4429847812
 H          5.4371427264        0.1241831678        1.3380059115
 H          4.3873600194        2.5923797377        0.4456496018
 H          3.2394700739        2.7306527715        2.5100731591
 H          1.3689933374        1.9249252707        3.9051906576
 H         -0.2549725950        0.3112105892        2.9873051766
 H         -0.4802959484       -1.5516330496        1.3139964655
 C          0.1032465124       -1.4726283636       -0.7197378818
 C         -0.8865465862       -2.1007297805       -1.6531014982
 C         -0.1146039847       -0.8909847837       -2.0829964740
 H          0.6650127622       -1.0054435210       -2.8227568631
 H         -0.6284365909        0.0557717460       -2.1479269237
 H         -0.6423200745       -3.0538816518       -2.0971282345
 H         -1.9358713316       -1.9808463550       -1.4255832210
 H          1.0323855429       -2.0137573414       -0.5671086702
