  62
        -98.93779906
 C         -2.4728454979       -0.9227968571        0.7147823208
 C         -3.5303232186       -0.9444174090       -0.2273417068
 C         -4.6807352176       -0.0792019219        0.0797255441
 C         -4.6713929295        0.6726348938        1.1944439535
 C         -5.7503516207        1.6370033055        1.5916645072
 C         -5.4695083888        3.0433894399        1.0441589326
 C         -5.1179657259        3.0691046543       -0.4434079682
 H         -4.9702149566        4.1141459642       -0.7244454300
 H         -4.1633720064        2.5591889347       -0.5939060114
 C         -6.1780974745        2.4391746025       -1.3575891696
 H         -6.3312885682        3.0936061156       -2.2183414874
 H         -7.1297778075        2.3709105942       -0.8292562885
 C         -5.8039700201        1.0613919014       -1.9070783410
 H         -4.8083586384        1.1040411249       -2.3561997271
 H         -6.5107754637        0.8093178801       -2.7022127342
 C         -5.8265036206       -0.0892594498       -0.8930997044
 H         -6.7814081818       -0.0949605465       -0.3637954332
 H         -5.7373157150       -1.0252834684       -1.4520774871
 H         -4.6321137897        3.4709042255        1.6004294008
 H         -6.3488083067        3.6649999565        1.2226230929
 H         -5.7868966279        1.6817641799        2.6814293812
 H         -6.7074579745        1.2757989046        1.2205014977
 O         -3.6377527213        0.6716985960        2.0740656606
 C         -2.5209863214       -0.1135176079        1.8544823990
 O         -1.6468817989       -0.0146859459        2.7398620476
 O         -3.5414887119       -1.6423416122       -1.2753769139
 C         -1.2077826946       -1.7547754935        0.5678916881
 C         -0.2355336878       -1.0857870326       -0.3753092449
 C         -0.4978908109       -0.9757985963       -1.7366491940
 C          0.4120208715       -0.3587973546       -2.5759176233
 C          1.5956275147        0.1596693335       -2.0808619007
 C          1.8665217202        0.0569935077       -0.7231303439
 C          0.9539768560       -0.5688029748        0.1175109676
 H          1.1612888853       -0.6380168056        1.1772591825
 N          3.0563771747        0.6006935225       -0.2069749658
 S          4.4716664723        0.3436993851       -1.0943699428
 O          4.5489580351        1.3460622826       -2.1275665951
 O          4.5319565984       -1.0296093879       -1.5415527268
 C          5.7175620320        0.6510425349        0.1414811356
 C          6.2664910607       -0.4173961976        0.8249663189
 C          7.2202497718       -0.1705289532        1.7997977932
 C          7.6041764357        1.1333413514        2.0750002088
 C          7.0439382381        2.1953195788        1.3804809507
 C          6.0907717029        1.9556230618        0.4035250347
 H          5.6359325638        2.7478460167       -0.1678947287
 H          7.3473516837        3.2071407317        1.5958933077
 H          8.3471784465        1.3224631782        2.8336335640
 H          7.6597695950       -0.9940678917        2.3392631026
 H          5.9451996770       -1.4149498722        0.5711585838
 H          3.1868296442        0.3776305664        0.7701872405
 H          2.3142267977        0.6371190773       -2.7277897955
 H          0.1978481760       -0.2793982632       -3.6314354961
 H         -1.4262107430       -1.3635263401       -2.1266867882
 H         -0.7481389832       -1.7646133710        1.5654115936
 C         -1.4758062953       -3.1890559228        0.1560652906
 C         -0.4281099172       -4.2247896420        0.4268579336
 C         -1.7029278992       -4.2233435459        1.2150834067
 H         -2.4280870816       -5.0008838978        1.0279068158
 H         -1.6655267035       -3.9007530849        2.2456930103
 H         -0.2741765185       -5.0043127845       -0.3033300238
 H          0.4758678432       -3.9041036918        0.9227310395
 H         -2.0497226345       -3.2784898076       -0.7560195615
