  62
        -98.94091838
 C          2.2773308522       -0.5445985161       -0.1272332147
 C          3.5570698896       -1.0611434916       -0.4424619171
 C          4.6275632394       -0.0694120135       -0.6075699312
 C          4.3370556772        1.2381438243       -0.4779505914
 C          5.3403062766        2.3509452363       -0.5654118013
 C          5.9200878008        2.6843667989        0.8164086186
 C          6.4062922747        1.4609750936        1.5935839551
 H          6.8222685848        1.8198999371        2.5375036433
 H          5.5479491607        0.8316255696        1.8400150467
 C          7.4579697700        0.6185272762        0.8582111705
 H          8.2566457043        0.3666684967        1.5589870413
 H          7.9050160922        1.2038837347        0.0540157825
 C          6.9304068797       -0.7009348784        0.2917474403
 H          7.7877691278       -1.3084848179       -0.0096877189
 H          6.3996263996       -1.2490874965        1.0741696973
 C          6.0043716639       -0.5818986704       -0.9252525309
 H          6.4786628812        0.0364471003       -1.6898596075
 H          5.8621781290       -1.5865790497       -1.3338973580
 H          5.1446738444        3.1787367038        1.4063079625
 H          6.7457275249        3.3859469628        0.6841740435
 H          6.1386213523        2.0611733761       -1.2457946208
 H          4.8385439313        3.2350150635       -0.9622834262
 O          3.0892612794        1.6982136175       -0.2019276990
 C          2.0298655076        0.8228366064       -0.0107006229
 O          0.9451426654        1.3795468537        0.2481316264
 H         -1.5479610447       -0.9818741087        0.5733727822
 C         -1.2892194787       -0.9551214971       -0.4707953406
 C          0.0107865990       -1.1998680538       -0.8828976432
 C          0.3005394636       -1.1569202318       -2.2448498084
 C         -0.6822260227       -0.8545866660       -3.1660918364
 C         -1.9731974421       -0.5823951957       -2.7478426771
 C         -2.2769488128       -0.6353068212       -1.3931977995
 N         -3.5975887346       -0.4113182463       -0.9554814933
 S         -3.8872860634        0.5607955153        0.3957875025
 O         -3.4012028913        1.9036842714        0.1649978667
 O         -3.4097989434       -0.1084166760        1.5780019023
 C         -5.6716822221        0.5507340382        0.3876276901
 C         -6.3625803114        1.6555360438       -0.0717460941
 C         -7.7482939981        1.6203183619       -0.0904754957
 C         -8.4155564686        0.4857889384        0.3455053137
 C         -7.7082496760       -0.6156924592        0.8045394328
 C         -6.3231584438       -0.5860958138        0.8273084639
 H         -5.7320018744       -1.4135597983        1.1830539697
 H         -8.2307951825       -1.4951640880        1.1446936669
 H         -9.4937010185        0.4606969924        0.3300937748
 H         -8.3004508987        2.4763455278       -0.4436065079
 H         -5.8010011699        2.5179843101       -0.3934493069
 H         -4.1905285920       -0.0965977731       -1.7134790374
 H         -2.7395428408       -0.3326157951       -3.4663650569
 H         -0.4415176139       -0.8199802706       -4.2181361056
 H          1.3134488782       -1.3559118373       -2.5684191416
 C          1.1270009438       -1.5129344535        0.0818837427
 H          1.5311291054       -2.5053024555       -0.1686651704
 C          0.6957285287       -1.5167836107        1.5328635224
 C          0.0443758014       -2.7319633036        2.1199055828
 C          1.4431958002       -2.3670831567        2.5141587678
 H          1.6168877431       -1.9773883841        3.5060710886
 H          2.2559736660       -2.9665841546        2.1306384150
 H         -0.7490404653       -2.5903117353        2.8382467717
 H         -0.0933016532       -3.5844600019        1.4721546288
 H          0.3561554178       -0.5431713049        1.8716589757
 O          3.7904460663       -2.2916110196       -0.5837391527
