  62
        -98.93706009
 C          1.7047300702        1.0580472918        0.2856784783
 C          2.9143548071        0.9530794725        1.0195828314
 C          3.7050883336       -0.2759597138        0.8354786643
 C          3.2219235971       -1.2461863101        0.0411379053
 C          3.8745863906       -2.5533321990       -0.3143490682
 C          4.6737318413       -2.4245046271       -1.6223598995
 C          6.1149144168       -1.9456039101       -1.4526770517
 H          6.7048425317       -2.7394447623       -0.9896716894
 H          6.5214528855       -1.7768136495       -2.4525954629
 C          6.2862274793       -0.6659440654       -0.6299194425
 H          5.5227771282        0.0599840987       -0.9160001578
 H          7.2549313317       -0.2313297468       -0.8843129195
 C          6.2337802931       -0.9107911717        0.8856114027
 H          6.3050474835       -1.9814075736        1.0763943273
 H          7.1075478709       -0.4546613486        1.3557559956
 C          4.9998862739       -0.3394640200        1.5988749784
 H          4.8317715300       -0.9000004358        2.5246616048
 H          5.1983302930        0.6952131942        1.8961172563
 H          4.1333848667       -1.7387872749       -2.2802779600
 H          4.6977722344       -3.3981801242       -2.1159716634
 H          4.5038245929       -2.9044995810        0.4979658022
 H          3.0679709047       -3.2724801000       -0.4705142908
 O          2.0357586211       -1.1268283487       -0.6118625496
 C          1.2554550372        0.0183362220       -0.5305209626
 O          0.2231946806       -0.0394688759       -1.2228447734
 H         -1.2747593360        2.1301115151       -1.1679270398
 C         -1.5161438370        1.8817069594       -0.1464674965
 C         -0.5339061402        1.9532557650        0.8278094122
 C         -0.8607255595        1.6010173739        2.1337151566
 C         -2.1432870921        1.1967954254        2.4558300515
 C         -3.1176631018        1.1063020471        1.4769848539
 C         -2.7918769520        1.4328074261        0.1670852305
 N         -3.7520003031        1.2882147331       -0.8473891656
 S         -4.7739240639       -0.0315938609       -0.7893245063
 O         -5.1157405368       -0.3080684237       -2.1681113785
 O         -5.8918310329        0.2710720669        0.0730035509
 C         -3.8582635890       -1.4011020859       -0.0942523392
 C         -4.5051803804       -2.2216158337        0.8094546569
 C         -3.8287836511       -3.3079750050        1.3395437494
 C         -2.5175705534       -3.5539111962        0.9621449751
 C         -1.8827369850       -2.7204598678        0.0552231620
 C         -2.5556381232       -1.6359842802       -0.4858717586
 H         -2.0500982958       -0.9791012116       -1.1758392281
 H         -0.8584127833       -2.8929996293       -0.2362542549
 H         -1.9863839307       -4.3958720762        1.3776779601
 H         -4.3228770713       -3.9555164839        2.0459438034
 H         -5.5205970173       -1.9859368743        1.0846345778
 H         -3.3796206454        1.4171525380       -1.7769357913
 H         -4.1203592708        0.7836544307        1.7077055686
 H         -2.3863107771        0.9381940072        3.4750823381
 H         -0.0935703904        1.6416804912        2.8943449682
 C          0.8848576236        2.3226600560        0.4835130471
 H          1.3381307506        2.8050013807        1.3639129678
 C          0.9724601469        3.3288136228       -0.6547231214
 C          2.2895895519        3.6141792971       -1.3105970899
 C          1.1973811673        2.9419279651       -2.0844040568
 H          0.6895412932        3.5101405933       -2.8505261618
 H          1.3007078113        1.8942682607       -2.3190085887
 H          2.5393006468        4.6369110675       -1.5492803031
 H          3.1354890843        3.0182655345       -1.0000710798
 H          0.3235612737        4.1825113343       -0.4825630484
 O          3.3236974856        1.8568408238        1.7965066279
