  62
        -98.94308198
 C          1.8142251715        0.1034054097        0.3434154500
 C          2.7272848017        0.6848163303       -0.5704022595
 C          3.9866704115       -0.0489507898       -0.7733903700
 C          4.1948204412       -1.2068953804       -0.1225910209
 C          5.4512760810       -2.0238152106       -0.2005656715
 C          6.4484695411       -1.6157152018        0.8930629189
 C          6.6823274714       -0.1077404119        0.9851569501
 H          5.7585263915        0.3764610281        1.3099508505
 H          7.4246714614        0.0582480173        1.7689015403
 C          7.1628342016        0.5414283191       -0.3202553393
 H          7.5558026615       -0.2233408705       -0.9911461699
 H          7.9839713818        1.2235770187       -0.0900799587
 C          6.0964684219        1.3581425599       -1.0522949787
 H          5.6341584920        2.0631708695       -0.3570769281
 H          6.5922662420        1.9434627705       -1.8311930682
 C          4.9832409517        0.5474624107       -1.7276222294
 H          4.4149950919        1.2304631814       -2.3655217889
 H          5.4227288416       -0.2270053988       -2.3592893100
 H          7.3963509310       -2.1221712218        0.7019850285
 H          6.0662723409       -1.9623059725        1.8561239286
 H          5.1870717408       -3.0741260107       -0.0656368324
 H          5.9012426411       -1.8961950999       -1.1832395114
 O          3.2875028010       -1.7457500709        0.7319406386
 C          2.0882885312       -1.1052835709        0.9903727990
 O          1.3600887510       -1.7009619014        1.8107980485
 H         -1.4703729488       -1.1334872097        0.5867511187
 C         -1.4411804986       -0.5442838690       -0.3182592108
 C         -0.5035747584        0.4704578009       -0.4569532999
 C         -0.4703717781        1.1915167619       -1.6464147093
 C         -1.3525325881        0.8952904229       -2.6689543696
 C         -2.2960580084       -0.1060670470       -2.5211594805
 C         -2.3372364686       -0.8332797179       -1.3381394411
 N         -3.2880803189       -1.8553647779       -1.1543949420
 S         -4.2422269189       -1.8003448188        0.2205972280
 O         -3.4715270091       -2.1617721099        1.3819545378
 O         -5.3753400791       -2.6460191783       -0.0851439628
 C         -4.7566020886       -0.0953854687        0.3158341994
 C         -5.7948694884        0.3207908322       -0.4947557503
 C         -6.1520011381        1.6591203222       -0.4934327693
 C         -5.4605890280        2.5560534814        0.3067609815
 C         -4.4214297481        2.1227561105        1.1153678112
 C         -4.0626657884        0.7839828904        1.1217078702
 H         -3.2638363785        0.4049765097        1.7386496999
 H         -3.8856355480        2.8218681099        1.7375091219
 H         -5.7336065677        3.5994075615        0.3034030324
 H         -6.9629015480        1.9988746329       -1.1172665690
 H         -6.3111776285       -0.4109452572       -1.0948586710
 H         -3.8636209688       -2.0254652271       -1.9672847321
 H         -2.9886378884       -0.3325165461       -3.3177193507
 H         -1.3097894079        1.4558549937       -3.5903025191
 H          0.2747038820        1.9595284018       -1.7764466886
 C          0.4675262316        0.7338154498        0.6694663104
 H          0.1006433614        0.1963102791        1.5546434200
 C          0.5740156719        2.2058599795        1.0131446116
 C         -0.5207353880        2.8436965091        1.8117014921
 C          0.8207496319        2.6046673882        2.4357045120
 H          1.4611124821        3.4521342879        2.6293996027
 H          0.9103618917        1.8151307176        3.1684923513
 H         -1.3386026782        2.2121890190        2.1241554715
 H         -0.8058539778        3.8576582593        1.5780563629
 H          1.0538012821        2.7982523400        0.2462135022
 O          2.5265481820        1.7608009608       -1.1908396686
