  62
        -98.94510109
 C         -2.4485631395       -1.2304058496       -0.1152566395
 C         -3.3879668697       -0.7237333994        0.8215792102
 C         -4.2286287596        0.3866410805        0.3646832299
 C         -4.0849051394        0.8583411003       -0.8867700701
 C         -4.8834877593        1.9690293702       -1.5130572604
 C         -4.3603597394        3.3747402302       -1.1875407006
 C         -4.6139447996        3.8471929205        0.2445900793
 H         -4.3977882896        4.9170389705        0.2711691292
 H         -5.6699428896        3.7217970405        0.4857616391
 C         -3.7543452398        3.1442929206        1.3046934696
 H         -2.9068830097        2.6523842006        0.8203655098
 H         -3.3397208899        3.8883856107        1.9885784195
 C         -4.5059064799        2.1183343508        2.1532682196
 H         -5.2680772700        2.6249007809        2.7493649194
 H         -3.7925702700        1.6552226209        2.8396520398
 C         -5.1803226498        1.0016846506        1.3457812796
 H         -6.0598616097        1.3877384506        0.8311923094
 H         -5.4942627599        0.2184869707        2.0399435697
 H         -4.8526487092        4.0714206101       -1.8700746908
 H         -3.2882550193        3.4064420002       -1.3972748104
 H         -4.8257117891        1.8220824800       -2.5937369904
 H         -5.9266213793        1.8876720602       -1.2060726306
 O         -3.1799951092        0.3427653502       -1.7586730199
 C         -2.3271966793       -0.6905816798       -1.3955286296
 O         -1.5417347791       -1.0242006199       -2.3061913794
 O         -3.5231682999       -1.1883994893        1.9841328103
 C         -1.5537441396       -2.3672059495        0.3543932008
 C         -0.1848174096       -1.8207023494        0.6808714109
 C          0.1657664301       -1.5487930692        1.9991074110
 C          1.3972428101       -0.9959318192        2.3018663911
 C          2.3005620402       -0.6960268293        1.2976059712
 C          1.9528296605       -0.9483215995       -0.0226764188
 C          0.7252697605       -1.5206434096       -0.3226186490
 H          0.4549369607       -1.6902109198       -1.3537290290
 N          2.8561423206       -0.6233093097       -1.0533676287
 S          3.4160832606        0.9617964803       -1.0920071289
 O          2.4718805505        1.8745027704       -0.4879170292
 O          3.7642976909        1.2137748401       -2.4735077889
 C          4.9110862205        0.8986954205       -0.1251089186
 C          5.0641291903        1.7308666806        0.9664520413
 C          6.2390989202        1.6652989007        1.6994648515
 C          7.2349288002        0.7745562607        1.3291351618
 C          7.0668925404       -0.0523082295        0.2282009819
 C          5.8951829105        0.0086645104       -0.5090023383
 H          5.7253482307       -0.6125252897       -1.3724436382
 H          7.8436925805       -0.7433443195       -0.0570291679
 H          8.1474026201        0.7247021708        1.9020150320
 H          6.3714650100        2.3077137109        2.5551893714
 H          4.2597761902        2.4032539707        1.2196117510
 H          2.5171538008       -0.8892683498       -1.9677648687
 H          3.2588437802       -0.2582058693        1.5248094613
 H          1.6560811299       -0.7933383890        3.3299470211
 H         -0.5465904300       -1.7578433291        2.7843101409
 H         -2.0070549397       -2.7158812194        1.2919480408
 C         -1.5040309494       -3.5292889096       -0.6160914190
 C         -1.0128700795       -4.8586237496       -0.1292302287
 C         -2.4649251694       -4.6659337096       -0.4451227890
 H         -2.8690826593       -5.1343326698       -1.3300223690
 H         -3.1639318896       -4.6104983695        0.3765297409
 H         -0.4169319394       -5.4631486297       -0.7954376285
 H         -0.7262055897       -4.9330626694        0.9087842613
 H         -1.2597612192       -3.2403999098       -1.6300131790
