  62
        -98.94532764
 C         -2.3611337063       -0.3869156484        0.0936794837
 C         -1.5601090749        0.2743271172       -0.8640501051
 C         -1.6050934384        1.7470777246       -0.8593467221
 C         -2.3480527659        2.3773287193        0.0668288434
 C         -2.6145756154        3.8529116549        0.2468284181
 C         -1.4871579272        4.8433360913       -0.0533861269
 C         -0.0961699076        4.3967363140        0.4189376382
 H          0.3471418616        5.1887903291        1.0257387711
 H         -0.1762638937        3.5096644860        1.0513774781
 C          0.8572504532        4.0909531930       -0.7371143181
 H          0.7507594016        4.8607989640       -1.5050086148
 H          1.8835497019        4.1326558722       -0.3636465286
 C          0.6614328372        2.7121332377       -1.3617464817
 H          0.9016427211        1.9519491567       -0.6146154740
 H          1.3771028249        2.6026528028       -2.1805047019
 C         -0.7529715944        2.4249943422       -1.8950324143
 H         -1.2229543305        3.3301268409       -2.2728488307
 H         -0.6649871644        1.7112665087       -2.7186645408
 H         -1.4551275364        5.0506747105       -1.1217893952
 H         -1.7568324968        5.7788552969        0.4405763502
 H         -3.4854036764        4.1088024984       -0.3656737681
 H         -2.9194763072        3.9584373578        1.2915497260
 O         -3.0613881320        1.6964487671        1.0114893687
 C         -3.0871437347        0.3147328837        1.0518185416
 O         -3.7839042557       -0.1636212883        1.9721431458
 O         -0.8533256260       -0.3396994145       -1.7064467233
 C         -2.4046425614       -1.9038004754        0.1291897285
 C         -1.0084678807       -2.4664526727        0.2385022328
 C         -0.5803564783       -3.5887635405       -0.4603859264
 C          0.7188462364       -4.0470340900       -0.3249005734
 C          1.6227480024       -3.3851854258        0.4859535199
 C          1.2013080337       -2.2662983402        1.1948120035
 C         -0.1116605261       -1.8373628065        1.0921788756
 H         -0.4257766939       -0.9695895859        1.6541217557
 N          2.0872113375       -1.5356145757        2.0150540199
 S          2.3862809688        0.0542164159        1.5720122572
 O          3.3631372942        0.5315881472        2.5278126607
 O          1.1489176908        0.7872281960        1.5084416980
 C          3.1552122213       -0.0715302008       -0.0343986466
 C          4.5263430779        0.0835397696       -0.1137340619
 C          5.1524116930       -0.0717783985       -1.3393125557
 C          4.4003983719       -0.3891424262       -2.4605878271
 C          3.0269716127       -0.5462166649       -2.3627432740
 C          2.3910719110       -0.3886087604       -1.1400768759
 H          1.3206982868       -0.4977351707       -1.0559742871
 H          2.4333871001       -0.7912101303       -3.2288176751
 H          4.8860630169       -0.5133011672       -3.4156999095
 H          6.2205678112        0.0529119403       -1.4155075670
 H          5.0675687264        0.3309850204        0.7852571292
 H          2.9703605779       -2.0022570810        2.1730436246
 H          2.6437874936       -3.7256840145        0.5708754040
 H          1.0366653178       -4.9203032258       -0.8736393563
 H         -1.2640090767       -4.1024793708       -1.1162753604
 H         -2.9564127400       -2.1709714299        1.0429949363
 C         -3.1669422968       -2.4257360790       -1.0726410721
 C         -3.9671413384       -3.6889999352       -0.9753369680
 C         -4.6637856623       -2.3650409589       -1.0585458644
 H         -5.1787467319       -2.1065145273       -1.9715606079
 H         -5.1329570427       -1.9727857442       -0.1676122636
 H         -4.0090631085       -4.3411424363       -1.8347294566
 H         -3.9756171009       -4.2046871926       -0.0269398935
 H         -2.6665828792       -2.2045944152       -2.0085265795
