  62
        -98.94629170
 C          1.3600455827        1.2341153887        0.5228256748
 C          1.6435645292        0.4213077774       -0.6022608661
 C          2.4006975412       -0.8065412058       -0.3215665731
 C          2.6862706908       -1.1433883198        0.9486910175
 C          3.4113034369       -2.3843105124        1.3949884078
 C          4.9405903551       -2.2598632597        1.3574860937
 C          5.5565164281       -2.2622845569       -0.0421221906
 H          6.6339310631       -2.3873789773        0.0827691382
 H          5.1914537946       -3.1271563454       -0.5968984927
 C          5.2979933451       -0.9822484807       -0.8491399837
 H          4.9789971234       -0.1844944797       -0.1743415713
 H          6.2292169309       -0.6522161262       -1.3150670126
 C          4.2624554713       -1.1326525199       -1.9636708444
 H          4.1352225829       -0.1593798797       -2.4441554101
 H          4.6340194361       -1.8326468816       -2.7151914008
 C          2.8835093357       -1.6117527858       -1.4896850978
 H          2.9216447328       -2.6714450814       -1.2382373123
 H          2.1726436807       -1.4635519838       -2.3053833818
 H          5.2303390538       -1.3465185004        1.8823285840
 H          5.3504575142       -3.1060633691        1.9138464954
 H          3.1024869886       -3.2329923001        0.7835693436
 H          3.1063702394       -2.5696683960        2.4274085016
 O          2.3084843241       -0.3808807664        2.0104803933
 C          1.6665645756        0.8323464178        1.8228976950
 O          1.4089909566        1.4441463258        2.8812940163
 O          1.2932258577        0.6977963608       -1.7763401424
 C          0.6251376725        2.5547636465        0.3531933500
 C         -0.7896849219        2.2511483169       -0.0761811947
 C         -1.3312518342        2.6205737113       -1.2988614578
 C         -2.6206134673        2.2416220396       -1.6354277653
 C         -3.3932261463        1.4952560979       -0.7651680677
 C         -2.8616187247        1.1299796119        0.4656316955
 C         -1.5721350509        1.5072809687        0.7999329609
 H         -1.1540604575        1.2149510742        1.7555812453
 N         -3.6345026278        0.3527028580        1.3540661560
 S         -4.1920483805       -1.1002162261        0.7310552341
 O         -5.3682034707       -0.8548752657       -0.0645329852
 O         -4.3716436912       -1.9678461298        1.8737141682
 C         -2.8680807590       -1.6915929845       -0.3080044151
 C         -1.6832938842       -2.0605895652        0.2975162896
 C         -0.6296226064       -2.4865112088       -0.4933178244
 C         -0.7758380911       -2.5289322930       -1.8710523881
 C         -1.9692557641       -2.1501753562       -2.4644489792
 C         -3.0275276044       -1.7246084274       -1.6778326371
 H         -3.9725908494       -1.4218727796       -2.0980268262
 H         -2.0757138107       -2.1805249945       -3.5367245121
 H          0.0483099904       -2.8581943354       -2.4834078738
 H          0.3036393356       -2.7708019882       -0.0336139286
 H         -1.6012501101       -2.0205464598        1.3727323595
 H         -3.1756731210        0.1942659326        2.2400945215
 H         -4.3943016091        1.1838868530       -1.0159928899
 H         -3.0276559016        2.5288992302       -2.5926906402
 H         -0.7406505332        3.1920267520       -1.9950478709
 H          0.5835103366        3.0091649378        1.3532881232
 C          1.3697424108        3.4870651466       -0.5765672185
 C          1.1024084127        4.9601070944       -0.5187742176
 C          2.4000593439        4.4129674566       -0.0064598002
 H          3.2992020924        4.5970239352       -0.5751615807
 H          2.5588256401        4.3869903119        1.0621378836
 H          1.1119513025        5.5235138284       -1.4392915309
 H          0.3790641906        5.3085443891        0.2029779938
 H          1.5801775705        3.0431331603       -1.5416218773
