  62
        -98.93883908
 C         -1.9028116748       -0.5217904551       -0.5733037539
 C         -2.9280743663       -1.3342886159       -0.0376957839
 C         -4.3016918492       -0.8141273420       -0.1474308389
 C         -4.5029103453        0.3720883707       -0.7474245757
 C         -5.8068777971        1.1026456867       -0.9123339310
 C         -6.0205762843        2.0978404461        0.2409456104
 C         -6.6970880034        1.5128006460        1.4802061357
 H         -6.6668926463        2.2788767542        2.2584747738
 H         -7.7474351580        1.3155390800        1.2557021314
 C         -6.0652362155        0.2303826542        2.0278366244
 H         -6.3716037437        0.1254175541        3.0704632621
 H         -4.9777901516        0.3236983375        2.0183443908
 C         -6.4889582145       -1.0285726409        1.2566992629
 H         -7.3336406256       -0.7839343903        0.6129516542
 H         -6.8460255325       -1.7814085925        1.9624886760
 C         -5.3810424444       -1.6921769588        0.4250455679
 H         -4.8458025912       -2.4179362452        1.0454008847
 H         -5.8392904165       -2.2590791999       -0.3921759157
 H         -6.6343167452        2.9257278156       -0.1198862185
 H         -5.0448430100        2.5092063790        0.5124599952
 H         -6.6343574741        0.4034912072       -0.9877314462
 H         -5.7331678492        1.6635072926       -1.8463735148
 O         -3.4858065747        1.1197808384       -1.2584843173
 C         -2.1672368089        0.7039321361       -1.1831737305
 O         -1.3478693672        1.4958919222       -1.6858242237
 O         -2.7046663697       -2.4430674191        0.5196644478
 C         -0.4650253636       -1.0021943334       -0.4856993780
 C          0.3656794011        0.0066170505        0.2670885215
 C         -0.0554327088        0.3990215224        1.5363049747
 C          0.6499599661        1.3421458349        2.2561199434
 C          1.8010248193        1.9055920108        1.7324187068
 C          2.2355675551        1.5161696403        0.4722317487
 C          1.5223858252        0.5668293712       -0.2498389552
 H          1.8750861300        0.3001901831       -1.2313741864
 N          3.3929574590        2.0819947990       -0.0866291577
 S          4.5321641304        1.1127368626       -0.8321410266
 O          5.7149736302        1.9412220336       -0.9113199760
 O          4.0254372830        0.6045233464       -2.0804884292
 C          4.7986712320       -0.2184150417        0.3239925547
 C          5.6143165701        0.0179258392        1.4137540800
 C          5.7793556606       -0.9822210098        2.3576522123
 C          5.1217555758       -2.1931744703        2.2011123423
 C          4.3070874007       -2.4144657294        1.1017105196
 C          4.1410621102       -1.4190403692        0.1514257582
 H          3.5199558012       -1.5556312229       -0.7181643987
 H          3.7982032103       -3.3574815893        0.9803375439
 H          5.2464363640       -2.9706312152        2.9382699811
 H          6.4158831093       -0.8150505647        3.2115708476
 H          6.1154151155        0.9691418436        1.4921939424
 H          3.8407457206        2.7729792648        0.4975125036
 H          2.3501871649        2.6497815116        2.2889366234
 H          0.3047859646        1.6415486228        3.2342212268
 H         -0.9555858979       -0.0404320906        1.9441232122
 H         -0.5046497546       -1.9284415058        0.1065722257
 C          0.0653841848       -1.3301511504       -1.8646967551
 C          1.1067525046       -2.3932075065       -2.0393616300
 C         -0.3004374460       -2.6410157916       -2.4914960726
 H         -0.5091090145       -2.6649359407       -3.5505696952
 H         -0.9130103918       -3.3144992794       -1.9099490774
 H          1.8722883955       -2.2464605822       -2.7872579571
 H          1.4423835434       -2.9103614434       -1.1529904714
 H          0.1044403120       -0.4644115036       -2.5169450296
