  62
        -98.94437719
 C          2.3446944294        1.1495415324        0.2540480243
 C          2.3328042416       -0.1066916323       -0.3997597600
 C          3.2822450991       -1.1022933911        0.1156966316
 C          4.0691161089       -0.8029974864        1.1646171510
 C          5.0650261256       -1.7216852765        1.8189214414
 C          6.4296602615       -1.7677955489        1.1178073997
 C          6.4513071915       -2.5139571051       -0.2167998005
 H          7.4994805872       -2.6583281181       -0.4859755588
 H          6.0096128677       -3.5024045665       -0.0864706193
 C          5.7442624053       -1.7794972644       -1.3643846691
 H          5.6137527799       -0.7280611572       -1.0985048791
 H          6.3724832913       -1.8086588360       -2.2574420715
 C          4.3847408891       -2.3637221554       -1.7485897667
 H          4.5169210828       -3.3739194881       -2.1425553802
 H          3.9574671842       -1.7462346099       -2.5428275544
 C          3.3734027103       -2.4185023928       -0.5960197668
 H          2.3868669935       -2.6403283292       -1.0116548631
 H          3.6414935417       -3.2109757138        0.1026167869
 H          6.7803919434       -0.7441150679        0.9686823177
 H          7.1272897195       -2.2627584536        1.7972340037
 H          5.2119553779       -1.3463624870        2.8339390551
 H          4.6500418669       -2.7283818167        1.8778543684
 O          4.0301080272        0.4065723330        1.7836536442
 C          3.1798081760        1.4063829103        1.3447262957
 O          3.2571769098        2.4659959676        1.9978549692
 H         -0.5140984386        1.0385199998       -1.6893140411
 C         -0.8412467327        1.2200212526       -0.6779869645
 C          0.0031387684        1.8593343856        0.2156585449
 C         -0.4310803117        2.0489601738        1.5247711592
 C         -1.6800233973        1.6119416353        1.9237563055
 C         -2.5173029772        0.9656556743        1.0303724176
 C         -2.0858359129        0.7565040656       -0.2717980289
 N         -2.9211599685        0.0827922707       -1.1808772719
 S         -3.5954133064       -1.3745621248       -0.6870724646
 O         -2.7810552719       -2.0369984499        0.3055991965
 O         -3.8495731225       -2.1083108864       -1.9080903981
 C         -5.1558468282       -0.8927968425        0.0256931095
 C         -6.0152760181       -0.1302196218       -0.7409561318
 C         -7.2370821819        0.2438450541       -0.2049423945
 C         -7.5786306901       -0.1506916128        1.0801840028
 C         -6.7066570946       -0.9193110128        1.8357806643
 C         -5.4823712488       -1.2960919115        1.3055626309
 H         -4.7699983673       -1.8884681243        1.8577747931
 H         -6.9736499580       -1.2260012532        2.8344068925
 H         -8.5300746710        0.1419696831        1.4954114991
 H         -7.9179798050        0.8412872375       -0.7895180913
 H         -5.7132920566        0.1523406660       -1.7355060581
 H         -2.5073011024       -0.0186852778       -2.0971254878
 H         -3.4869035294        0.6094706767        1.3379591110
 H         -2.0045825070        1.7701358719        2.9410458386
 H          0.2338805961        2.5296753953        2.2291281087
 C          1.4050966241        2.2717818804       -0.1616634826
 H          1.6818394918        3.1382593524        0.4531751323
 C          1.5672723169        2.6398359616       -1.6215202598
 C          0.9816970317        3.9257018096       -2.1202613190
 C          2.4673888360        3.7782705134       -1.9924620119
 H          3.0579598619        3.6947887012       -2.8925715423
 H          2.9670038742        4.3019947976       -1.1905044285
 H          0.4710972541        4.5499591052       -1.4027820390
 H          0.5503787994        3.9476024773       -3.1093513327
 H          1.5565159925        1.7851706681       -2.2861468476
 O          1.5796710975       -0.3961380588       -1.3670868995
