  62
        -98.93874466
 C         -2.7425895313       -0.7123023399       -0.1399703342
 C         -2.3647002662        0.2217862252       -1.1379873202
 C         -2.6465383985        1.6357435277       -0.8272523716
 C         -3.2529947451        1.9594423841        0.3273818856
 C         -3.5493648056        3.3572917911        0.7864261276
 C         -2.4015470780        3.9197298611        1.6356072549
 C         -1.0209133431        3.7611495946        0.9978087935
 H         -0.2991286096        4.2390883155        1.6639462597
 H         -0.7571992636        2.7014789670        0.9507903226
 C         -0.8966195127        4.3658344207       -0.4072633954
 H         -1.7046259906        5.0785770587       -0.5797168139
 H          0.0440361665        4.9168474011       -0.4684363648
 C         -0.8776694948        3.3325816678       -1.5356934649
 H         -0.1434521052        2.5557101167       -1.3045503046
 H         -0.5479321220        3.8324990617       -2.4511438352
 C         -2.2213691664        2.6582280023       -1.8431025562
 H         -2.9952167999        3.4187232626       -1.9723658628
 H         -2.1113401589        2.1145980697       -2.7863863719
 H         -2.5974578691        4.9777457480        1.8204029226
 H         -2.3961955295        3.4006542067        2.5968225505
 H         -3.7179758070        3.9908284921       -0.0821303624
 H         -4.4581030865        3.3331873604        1.3904826384
 O         -3.6380505968        1.0322423272        1.2424657953
 C         -3.3631410823       -0.3090186694        1.0454356740
 O         -3.7329882156       -1.0478182034        1.9813975889
 H         -0.1388392210       -0.7839202060       -0.1563188146
 C         -0.0872409337       -1.6595401509        0.4728881219
 C         -1.1843502059       -2.5026302858        0.5708849157
 C         -1.0977307812       -3.6194281893        1.3938422164
 C          0.0681707947       -3.8901883237        2.0881090209
 C          1.1657125051       -3.0568282357        1.9738161753
 C          1.0828979107       -1.9256633693        1.1679496489
 N          2.1605674981       -1.0315533420        1.0765366734
 S          2.3496802201       -0.1207437592       -0.3333259066
 O          1.4585093960        1.0084175535       -0.2767033550
 O          2.2547168597       -0.9816533968       -1.4901167406
 C          4.0321468845        0.4297458786       -0.1206404409
 C          5.0583426160       -0.3064703581       -0.6822677968
 C          6.3663716045        0.1079506405       -0.4867130271
 C          6.6248410865        1.2442945412        0.2651391331
 C          5.5845411117        1.9741151307        0.8209188485
 C          4.2742866655        1.5652901684        0.6286194550
 H          3.4326900280        2.1039701166        1.0323307983
 H          5.7889533267        2.8591154726        1.4015484515
 H          7.6434404335        1.5650750020        0.4159843997
 H          7.1766713741       -0.4550975402       -0.9209683788
 H          4.8083148135       -1.1761674399       -1.2685258696
 H          3.0344472246       -1.4242788758        1.3980027350
 H          2.0757047666       -3.2689133212        2.5139336481
 H          0.1242470650       -4.7610921512        2.7233206946
 H         -1.9561179185       -4.2667480028        1.4977357130
 C         -2.4419373595       -2.2015787964       -0.2067992538
 H         -3.2758392639       -2.6988193167        0.3164365158
 C         -2.3950126846       -2.7667114511       -1.6182344479
 C         -1.1195272617       -3.0275053775       -2.3553442740
 C         -1.9403765332       -4.1766889180       -1.8570952503
 H         -2.4789331399       -4.7748719942       -2.5763963990
 H         -1.5608170266       -4.7315434484       -1.0126683148
 H         -0.1862826113       -2.7964864042       -1.8633876448
 H         -1.1034566163       -2.8123586940       -3.4129653618
 H         -3.2288784543       -2.4160068817       -2.2175814450
 O         -1.8349713844       -0.0778227031       -2.2384535331
