  62
        -98.94873602
 C         -1.8015351120       -1.1487828107       -0.2785045596
 C         -0.7883748424       -1.6776267595       -1.1115647549
 C          0.1153707150       -2.6470564362       -0.4857763387
 C         -0.0397558979       -2.9587952057        0.8138599486
 C          0.7823091155       -3.9531604601        1.5885515258
 C          2.1055668455       -3.3864092135        2.1198687703
 C          3.1929468524       -3.1830374993        1.0644168266
 H          4.1310244161       -3.0230121001        1.5997819062
 H          3.3039696646       -4.0941178494        0.4751450507
 C          2.9499222700       -1.9863710996        0.1342033962
 H          3.8787758991       -1.4224652523        0.0243432659
 H          2.2220863410       -1.3108620247        0.5919991504
 C          2.4824924752       -2.3523570203       -1.2745889086
 H          2.2785211974       -1.4241507117       -1.8151656683
 H          3.2827353306       -2.8802848649       -1.7983642024
 C          1.2194605838       -3.2206525792       -1.3223491689
 H          0.8665196517       -3.2517442564       -2.3563159550
 H          1.4494653101       -4.2361105654       -0.9999144706
 H          2.4813409474       -4.0838179207        2.8726307391
 H          1.9023103594       -2.4340660980        2.6167541136
 H          0.1724197911       -4.2617590411        2.4404839916
 H          0.9816448253       -4.8280023181        0.9682505275
 O         -1.0119151076       -2.4100855322        1.5891421780
 C         -1.8921694248       -1.4704422779        1.0755782845
 O         -2.7065100228       -1.0212308821        1.9061933436
 H         -0.4281317305        0.9769878189       -0.2522686587
 C         -1.2372487311        1.6073594876        0.0863810607
 C         -2.5469685616        1.1991491926       -0.1353413648
 C         -3.5807868656        2.0132501477        0.3063901967
 C         -3.3010318715        3.1872572355        0.9857073056
 C         -1.9970924443        3.5665315579        1.2436774498
 C         -0.9539646408        2.7655440026        0.7893313115
 N          0.3819194466        3.1346472492        1.0039478049
 S          1.6143519148        2.0184442959        1.1694638697
 O          1.1332095723        0.7270332128        1.6042113248
 O          2.5754172056        2.6568372289        2.0455316161
 C          2.3473705197        1.8835224306       -0.4513426887
 C          1.6741539040        2.2728546824       -1.5909695075
 C          2.2958697725        2.1166053116       -2.8210911340
 C          3.5716470749        1.5811240858       -2.8931648306
 C          4.2413906802        1.2078740942       -1.7381072696
 C          3.6255544076        1.3614413378       -0.5069631806
 H          4.1110029774        1.0946377689        0.4180967269
 H          5.2368882849        0.7975391428       -1.7929654386
 H          4.0468407510        1.4568171942       -3.8533348234
 H          1.7758633788        2.4109837862       -3.7186143402
 H          0.6829502618        2.6889446061       -1.5176959191
 H          0.5195623832        3.9301867510        1.6085954897
 H         -1.7826336151        4.4702621296        1.7933787308
 H         -4.1123104165        3.8088035180        1.3332516557
 H         -4.6041367094        1.7234718149        0.1332176251
 C         -2.7547512051       -0.1140495627       -0.8487085324
 H         -2.4524710584        0.0126490350       -1.8994591115
 C         -4.1843201735       -0.6093570099       -0.8079815228
 C         -5.1747014989       -0.1439729789       -1.8324233205
 C         -4.6553665561       -1.5486444764       -1.8763614587
 H         -5.3168896130       -2.3551280195       -1.5979685608
 H         -3.9496562171       -1.8110987155       -2.6509226199
 H         -4.8275576390        0.5468691230       -2.5856591586
 H         -6.1980098163        0.0127274525       -1.5262494921
 H         -4.5335378445       -0.7857836773        0.2031810736
 O         -0.6507940445       -1.3576740531       -2.3239821530
