  62
        -98.93365278
 C         -2.1202974392       -0.6513707309        0.8752748792
 C         -2.8692867083        0.5226985235        1.1368084340
 C         -4.2917543671        0.5086083303        0.7561449024
 C         -4.8033433511       -0.6034099970        0.2010359401
 C         -6.2020746273       -0.8159251677       -0.3084165008
 C         -6.2854210651       -0.5031409596       -1.8121029512
 C         -6.5613332960        0.9610585147       -2.1516090775
 H         -6.4653190600        1.0671066844       -3.2346410707
 H         -7.5937192997        1.2017980600       -1.8894275554
 C         -5.6362680218        1.9761095692       -1.4748805062
 H         -4.6060807274        1.6163450606       -1.5079459127
 H         -5.6732577362        2.9010444760       -2.0538137893
 C         -6.0355169934        2.2828408995       -0.0237084464
 H         -6.1069703125        3.3641886435        0.1109623099
 H         -7.0313507896        1.8819342961        0.1645014073
 C         -5.0614324514        1.7680938639        1.0463531892
 H         -5.6035969844        1.6367108089        1.9889786478
 H         -4.2925124824        2.5244872052        1.2332399736
 H         -5.3446100494       -0.8165223653       -2.2716845195
 H         -7.0812872736       -1.1075123282       -2.2520044027
 H         -6.4293894399       -1.8736813937       -0.1603603861
 H         -6.9134081948       -0.2220224996        0.2576742527
 O         -4.0537692344       -1.7145302055       -0.0261477032
 C         -2.7021422695       -1.7736179746        0.2838983251
 O         -2.1692838213       -2.8569538845       -0.0147674715
 O         -2.3645217132        1.5481311342        1.6711323113
 C         -0.6550913885       -0.6236581019        1.2677150480
 C          0.2131965933       -0.1405310375        0.1331149512
 C          0.0460292801       -0.6182354798       -1.1634904703
 C          0.8552165383       -0.1657481857       -2.1894290123
 C          1.8621457271        0.7506491838       -1.9390484899
 C          2.0434539527        1.2264602551       -0.6468316623
 C          1.2122600470        0.7908140048        0.3763047994
 H          1.3604877674        1.1844144942        1.3702438935
 N          3.0772722435        2.1369191427       -0.3409705076
 S          4.2979034970        1.5611694822        0.6537895474
 O          3.7372817086        1.1460650853        1.9123810064
 O          5.2898786834        2.6107819734        0.6956759581
 C          4.9422589689        0.1526350697       -0.2322627230
 C          6.0191292602        0.3286249886       -1.0792928373
 C          6.4682778993       -0.7492757087       -1.8250865271
 C          5.8288417365       -1.9754717668       -1.7201239620
 C          4.7468371162       -2.1349461069       -0.8678865033
 C          4.2958594398       -1.0617698940       -0.1157367701
 H          3.4616115334       -1.1524947444        0.5601533693
 H          4.2482141163       -3.0874533650       -0.7847427712
 H          6.1758858116       -2.8131665341       -2.3042247703
 H          7.3113140704       -0.6296856996       -2.4864026532
 H          6.4883009954        1.2982186858       -1.1259330260
 H          3.4900792807        2.5681032049       -1.1569529660
 H          2.5000722845        1.0973271647       -2.7381306758
 H          0.7087416195       -0.5400322333       -3.1911268760
 H         -0.7201316747       -1.3543132337       -1.3547934009
 H         -0.5918768532        0.1319919858        2.0672659123
 C         -0.1600096238       -1.9420493001        1.8491696405
 C          0.8609986953       -2.8013337427        1.1715212658
 C          1.2304804220       -2.0357601098        2.4049563700
 H          1.3810137546       -2.5798556250        3.3253468011
 H          1.8695775528       -1.1694219876        2.3046187141
 H          0.7386053880       -3.8711574331        1.2420919484
 H          1.2518182841       -2.4710921245        0.2216441828
 H         -0.9385430712       -2.4615441709        2.3978416746
