  62
        -98.94343704
 C          1.7621196325        1.2067648336       -0.0441268847
 C          2.9718394128        1.1325405686        0.6939953901
 C          4.0636416585        0.3591874480        0.0891686416
 C          3.8763285148       -0.2059338585       -1.1170194864
 C          4.8833783504       -1.0572546917       -1.8333193812
 C          4.7038294625       -2.5418999060       -1.4868984624
 C          4.5987526032       -2.8175915962        0.0132355615
 H          3.6780405266       -2.3704143886        0.3958464145
 H          4.5057571207       -3.8985642768        0.1396576962
 C          5.7890443719       -2.3065695252        0.8371470315
 H          6.0857875712       -3.0856153671        1.5424990858
 H          6.6409822612       -2.1219922058        0.1817543399
 C          5.4994960804       -1.0488719986        1.6588730651
 H          6.3242956347       -0.9057636690        2.3619935445
 H          4.5906745714       -1.1975810067        2.2478079637
 C          5.3491880561        0.2518178629        0.8596068943
 H          5.3405964668        1.0806667459        1.5735023403
 H          6.2080216124        0.3778212330        0.1971189433
 H          5.5462895108       -3.0979152168       -1.9021444247
 H          3.7905653719       -2.9025778779       -1.9664053492
 H          5.8853073854       -0.7293266548       -1.5633415940
 H          4.7445839031       -0.9246905663       -2.9077088894
 O          2.7128344865       -0.1018144528       -1.8052893548
 C          1.6234254898        0.5911782195       -1.2894565073
 O          0.6220050304        0.5611973235       -2.0311097429
 O          3.1309279888        1.6964646333        1.8100711733
 C          0.6336138958        2.0131083533        0.5654013902
 C         -0.4747245885        1.1798036867        1.1678639963
 C         -1.3310973545        1.7415412164        2.1107698029
 C         -2.3985474160        1.0228045122        2.6168875540
 C         -2.6467912380       -0.2689357569        2.1861406348
 C         -1.7963532573       -0.8389362971        1.2498978120
 C         -0.7153329920       -0.1208768411        0.7577340146
 H         -0.0711542309       -0.5823965784        0.0242002681
 N         -2.0697351519       -2.1329365859        0.7618627326
 S         -3.6024853767       -2.3137248498        0.0982782453
 O         -4.5373497192       -2.6285149486        1.1502549639
 O         -3.4638475116       -3.3143176161       -0.9369498750
 C         -3.9980314616       -0.7172029612       -0.5960191714
 C         -3.1603996089       -0.1921876386       -1.5602448253
 C         -3.4272415188        1.0707000772       -2.0628266432
 C         -4.5212898373        1.7834452177       -1.5972461446
 C         -5.3566112371        1.2394679416       -0.6339128037
 C         -5.0921257457       -0.0210712699       -0.1234967936
 H         -5.7078549353       -0.4784776538        0.6336179032
 H         -6.2071134795        1.7957158134       -0.2743623879
 H         -4.7210946244        2.7686430578       -1.9881282269
 H         -2.7678127238        1.4901954690       -2.8062139547
 H         -2.3084660497       -0.7560096470       -1.9066863186
 H         -1.3746693224       -2.4590882054        0.1050818677
 H         -3.4845876608       -0.8410801890        2.5506353833
 H         -3.0506312444        1.4735827241        3.3485930248
 H         -1.1555929550        2.7515931723        2.4461860617
 H          1.0988169481        2.5910858502        1.3761541600
 C          0.0226049776        2.9832227675       -0.4331933661
 C         -0.4291712480        4.3424434795        0.0033093000
 C          0.7965244587        4.1977307689       -0.8468167107
 H          0.7572234007        4.5053996336       -1.8807988169
 H          1.7601270923        4.3539701766       -0.3833096172
 H         -1.3200793010        4.7551394429       -0.4437007475
 H         -0.2860875615        4.6172823852        1.0370239008
 H         -0.5546343136        2.4807959718       -1.1994863415
