  62
        -98.93902804
 C         -1.7528903069       -1.4645271217       -0.0074831656
 C         -2.8933824760       -0.8345678220        0.5443065516
 C         -3.3705261599        0.3852854703       -0.1274647959
 C         -2.6956373645        0.8455950273       -1.1950933017
 C         -2.9495560072        2.1150500390       -1.9589592490
 C         -2.0748831416        3.2499722340       -1.3970517665
 C         -2.7073302437        4.0353068511       -0.2493389972
 H         -1.9475372704        4.7254973442        0.1251943118
 H         -3.5388006530        4.6321410742       -0.6316366735
 C         -3.2077382799        3.1801047324        0.9177257122
 H         -2.4704649345        2.4031050392        1.1330969657
 H         -3.2678988155        3.8192958918        1.8013033229
 C         -4.5868394540        2.5529998278        0.6623183312
 H         -5.2406732945        2.7647972873        1.5109349269
 H         -5.0384158077        3.0352672055       -0.2045997276
 C         -4.5941184658        1.0288582331        0.4661286692
 H         -5.4633882442        0.7527424471       -0.1401791888
 H         -4.7200890719        0.5387982113        1.4368434335
 H         -1.1302231397        2.8140878191       -1.0577495542
 H         -1.8436658184        3.9508257488       -2.2021380668
 H         -4.0029440154        2.3793504281       -1.9362004571
 H         -2.6536509798        1.9251489565       -2.9927079718
 O         -1.6049211242        0.2119531856       -1.6971462009
 C         -1.0736940649       -0.9150156632       -1.0974393906
 O         -0.0293352006       -1.3265732043       -1.6360438105
 O         -3.4777186325       -1.2630881882        1.5786328826
 C         -1.1710071926       -2.6566543222        0.7371445763
 C          0.2922432228       -2.3816367039        0.9724647903
 C          1.3287401284       -3.2007838959        0.5471292676
 C          2.6466768393       -2.8041126134        0.7026783736
 C          2.9563860927       -1.5743275142        1.2549143644
 C          1.9250634959       -0.7576324278        1.6981572518
 C          0.6128704262       -1.1769949616        1.5880836080
 H         -0.1849126462       -0.5236638838        1.9224088061
 N          2.2336040357        0.5559774138        2.1636115425
 S          1.9905259212        1.6710767461        0.9122398636
 O          2.3114861365        2.9659130474        1.4774417201
 O          0.6608444839        1.5607373754        0.3510557893
 C          3.2342264713        1.1819580225       -0.2562558980
 C          2.9195102144        0.2834976811       -1.2562432690
 C          3.9275481883       -0.1321094888       -2.1135914876
 C          5.2173513707        0.3508702559       -1.9561307045
 C          5.5139936628        1.2535103491       -0.9453240222
 C          4.5144276025        1.6720536483       -0.0827422240
 H          4.6923989131        2.3715617538        0.7174363976
 H          6.5180939619        1.6272667264       -0.8255089835
 H          5.9959809100        0.0201783697       -2.6254223423
 H          3.6928748581       -0.8372573061       -2.8947346106
 H          1.9083658508       -0.0835527631       -1.3525964764
 H          1.6497909268        0.8378509943        2.9411359229
 H          3.9757916891       -1.2342498895        1.3381901862
 H          3.4411514115       -3.4480439804        0.3587919662
 H          1.1034451018       -4.1350884106        0.0595246328
 H         -1.6864372888       -2.6444332753        1.7127166361
 C         -1.4549293791       -4.0134243676        0.1146493038
 C         -2.6652642449       -4.2248186785       -0.7438224855
 C         -1.2973671281       -4.2769271201       -1.3517377481
 H         -0.9127861169       -5.2385708559       -1.6585759283
 H         -0.9775199973       -3.4571836540       -1.9747223703
 H         -3.2189513496       -5.1451821596       -0.6340032324
 H         -3.2844788930       -3.3639832134       -0.9521631383
 H         -1.1963008083       -4.8268272343        0.7857795845
