  62
        -98.94043955
 C         -2.5072873547       -1.2554003374        0.1011248554
 C         -3.4172976771       -0.6737553381        1.0233373866
 C         -4.4208788814        0.2422782311        0.4680572581
 C         -4.4389437433        0.4667892828       -0.8580082683
 C         -5.3735686933        1.4098776287       -1.5572904805
 C         -4.7678473326        2.8163649669       -1.6647304952
 C         -4.2047793648        3.3492433988       -0.3470869407
 H         -3.3462275208        2.7405253805       -0.0535557153
 H         -3.8325553222        4.3581810289       -0.5376223889
 C         -5.2166272130        3.3869486087        0.8067449563
 H         -5.1247172508        4.3457057710        1.3212907474
 H         -6.2313847235        3.3275061131        0.4116260274
 C         -5.0182555671        2.2955203515        1.8603011344
 H         -5.6361266609        2.5438842150        2.7272407556
 H         -3.9766955439        2.2904627649        2.1914012327
 C         -5.3921942671        0.8728724473        1.4256873940
 H         -5.3856345888        0.2399944019        2.3178407278
 H         -6.4012654973        0.8686784436        1.0084993183
 H         -5.5376819112        3.4958097672       -2.0350116869
 H         -3.9577899672        2.7894111028       -2.3974108336
 H         -6.3148579436        1.4488900396       -1.0124597088
 H         -5.5609007455        1.0267001992       -2.5618426700
 O         -3.5633193775       -0.1156185753       -1.7140960968
 C         -2.5695796737       -0.9780452697       -1.2648778206
 O         -1.8371893594       -1.4051338078       -2.1782162594
 O         -3.3935581170       -0.9206562308        2.2584604083
 C         -1.4799846399       -2.2129173009        0.6789865965
 C         -0.1641425741       -1.5311595133        0.9540117447
 C          0.4729815210       -1.6755190522        2.1807400102
 C          1.6981797466       -1.0748078168        2.4132206810
 C          2.3113447145       -0.3195872362        1.4297689511
 C          1.6817266220       -0.1666492092        0.2013460532
 C          0.4531085255       -0.7682267384       -0.0278691826
 H         -0.0248523531       -0.6581836777       -0.9907049847
 N          2.3000795864        0.6012466622       -0.8058259616
 S          3.8278190061        0.0896121003       -1.2945467380
 O          3.9901845722        0.5908361881       -2.6415119326
 O          3.9855283196       -1.3352432729       -1.1135353896
 C          4.9352289404        0.9681576237       -0.2120726052
 C          5.8320249943        0.2690573980        0.5718436973
 C          6.6895038834        0.9758957756        1.4007813445
 C          6.6353626437        2.3610097249        1.4301133334
 C          5.7304607384        3.0481155602        0.6343452855
 C          4.8713610257        2.3478639802       -0.1973805046
 H          4.1559070749        2.8417581368       -0.8336491701
 H          5.6914547783        4.1252263854        0.6598561521
 H          7.3026565360        2.9086808142        2.0767019070
 H          7.3938877488        0.4438406127        2.0197541572
 H          5.8329568887       -0.8079297251        0.5196143843
 H          1.7103601101        0.7275104956       -1.6170980498
 H          3.2657496196        0.1498454837        1.6037820318
 H          2.1813468280       -1.1956120128        3.3705669339
 H         -0.0028200224       -2.2575246669        2.9564265400
 H         -1.9025124245       -2.5153233938        1.6502950023
 C         -1.3157703685       -3.4782109756       -0.1542659172
 C         -0.0848263799       -3.8103787083       -0.9384232798
 C         -0.4026641763       -4.5740334638        0.3101247762
 H         -0.7345440707       -5.5973915816        0.2232921068
 H          0.2073316045       -4.3771613105        1.1787858875
 H         -0.2184543394       -4.2926103399       -1.8950756054
 H          0.7461165448       -3.1215372475       -0.9198448298
 H         -2.2566375801       -3.7887740830       -0.5983223329
