  62
        -98.94379145
 C          1.9048277686       -1.2586797023       -0.3391467665
 C          1.9248959769       -0.1966884691        0.5974520631
 C          3.2568932791        0.3168439569        0.9502784558
 C          4.3493233815       -0.2480485860        0.4046078862
 C          5.7584828635        0.2155036999        0.6316995464
 C          6.1778891047        1.2495718772       -0.4226646916
 C          5.1661518734        2.3791236936       -0.6174729563
 H          4.2465811765        1.9666284177       -1.0392579064
 H          5.5810139949        3.0625723108       -1.3616508254
 C          4.8299515346        3.1586099551        0.6615678615
 H          4.8380682862        4.2264420924        0.4327422620
 H          5.5991287915        2.9834941600        1.4147202050
 C          3.4565937978        2.8408762676        1.2560913765
 H          2.6920288503        2.9267145341        0.4794266333
 H          3.2341445224        3.5937120494        2.0171121336
 C          3.3192956071        1.4642925676        1.9187082430
 H          2.3692353599        1.4517932131        2.4604994759
 H          4.1275423749        1.3201556382        2.6384229171
 H          6.3065439438        0.7368329387       -1.3788758151
 H          7.1422346899        1.6693154836       -0.1306981212
 H          6.4209528405       -0.6490331884        0.5629394858
 H          5.8393734090        0.6443351591        1.6285722160
 O          4.2902538019       -1.2874559372       -0.4671800187
 C          3.0711097977       -1.8075815863       -0.8711235375
 O          3.1557990308       -2.7417241618       -1.6947016062
 O          0.8901327476        0.3004140480        1.1093626960
 C          0.5822499638       -1.8501166096       -0.7869457325
 C         -0.3171073965       -0.7979175982       -1.3909072758
 C          0.2261640878        0.2647680738       -2.1062775592
 C         -0.5825194088        1.2464819366       -2.6477606786
 C         -1.9575425879        1.1826952507       -2.5049084774
 C         -2.5129202862        0.1119959423       -1.8204446203
 C         -1.6978515502       -0.8686926367       -1.2687177956
 H         -2.1489619723       -1.6901022455       -0.7329857821
 N         -3.9191548016        0.0509792447       -1.6777543629
 S         -4.5722518281        1.1116683776       -0.5534296067
 O         -6.0012614959        0.8987786034       -0.5897838688
 O         -4.1115017494        2.4421259657       -0.8528747255
 C         -3.9155082275        0.5429353628        1.0036150978
 C         -4.6999673298       -0.2579606217        1.8111150637
 C         -4.1506493264       -0.7834417705        2.9690959297
 C         -2.8263567110       -0.5186247673        3.2868666671
 C         -2.0508340404        0.2832128181        2.4638002227
 C         -2.5994828990        0.8236227386        1.3114194530
 H         -2.0123523451        1.4473212450        0.6571234041
 H         -1.0122696098        0.4745330515        2.6821069836
 H         -2.3936202467       -0.9413169313        4.1803354500
 H         -4.7507581737       -1.4048411475        3.6144752518
 H         -5.7208582393       -0.4457576785        1.5193992855
 H         -4.2569689024       -0.8804837585       -1.4748437347
 H         -2.6030218140        1.9497444205       -2.9000789793
 H         -0.1380708558        2.0700548372       -3.1864390582
 H          1.2999153891        0.3210698584       -2.2245014676
 H          0.8272214102       -2.5808696529       -1.5724073501
 C         -0.0719169007       -2.5791650304        0.3718315599
 C         -0.8600377948       -3.8329951876        0.1418390801
 C          0.4854618131       -3.9027861005        0.7976915245
 H          0.5376277292       -4.1270229851        1.8522889997
 H          1.3142211865       -4.2960222346        0.2264313736
 H         -1.7333905471       -4.0121407702        0.7512729931
 H         -0.9442907332       -4.1962626159       -0.8716179677
 H         -0.4049885252       -1.9018167558        1.1500358167
