  62
        -98.94633280
 C          1.7924585402        0.7364523703        0.2280993693
 C          3.0883434802        0.9933656207        0.7358047691
 C          4.0155993504       -0.1457717791        0.7336512795
 C          3.5896389306       -1.3395451694        0.2812003200
 C          4.4451110508       -2.5674060392        0.1688290105
 C          5.1115864507       -2.6546239097       -1.2113743495
 C          5.8073919404       -1.3642082998       -1.6445405102
 H          6.2674581904       -1.5533268701       -2.6168975301
 H          5.0555254003       -0.5853845500       -1.7918798004
 C          6.8745302804       -0.8582507991       -0.6638936605
 H          7.7603370603       -0.5645561792       -1.2310454007
 H          7.1729438107       -1.6641717788        0.0075363699
 C          6.4509753903        0.3580209711        0.1616732290
 H          6.0641957501        1.1350107408       -0.5026657413
 H          7.3400252302        0.7615976015        0.6535736788
 C          5.4058498104        0.0922599914        1.2524821692
 H          5.7319111006       -0.7403283982        1.8791297896
 H          5.3430828903        0.9885542117        1.8766603189
 H          4.3450046107       -2.8946343102       -1.9517884093
 H          5.8350776109       -3.4717035296       -1.1942633692
 H          3.8104615010       -3.4435124093        0.3113518509
 H          5.2033835609       -2.5489857588        0.9491404404
 O          2.3291003106       -1.5537806398       -0.1748046197
 C          1.4018086904       -0.5233194300       -0.2235272101
 O          0.2895057404       -0.8546060604       -0.6741182999
 O          3.4490178700        2.1188109210        1.1741799285
 C          0.7874793400        1.8721493800        0.1692331089
 C         -0.4558738999        1.5111810101        0.9423710992
 C         -0.3244441497        1.0853386207        2.2627120493
 C         -1.4339086695        0.7454311409        3.0109776996
 C         -2.7008002696        0.8154810204        2.4565002597
 C         -2.8441585298        1.2448429998        1.1438758295
 C         -1.7270021299        1.6001519397        0.3982648392
 H         -1.8725516801        1.9238285592       -0.6181761409
 N         -4.1196628799        1.3515783293        0.5560543096
 S         -4.4514018698        0.5036845086       -0.8500029000
 O         -3.5611940900        0.9238794183       -1.8995687003
 O         -5.8627796899        0.7217766282       -1.0832018400
 C         -4.1816339495       -1.2055673312       -0.4162545393
 C         -5.2774184593       -1.9744360112       -0.0717831589
 C         -5.0805887490       -3.2849613110        0.3303095517
 C         -3.7941944789       -3.8002016508        0.3913038218
 C         -2.7064355891       -3.0134010707        0.0471305514
 C         -2.8945223994       -1.7013214509       -0.3612284592
 H         -2.0533306795       -1.0823862009       -0.6314074095
 H         -1.7010547390       -3.4015167305        0.0914627614
 H         -3.6375345887       -4.8196748506        0.7072192322
 H         -5.9263426989       -3.8983559211        0.5964211020
 H         -6.2585348794       -1.5323155515       -0.1378176390
 H         -4.8783893198        1.2136311994        1.2096010397
 H         -3.5699095995        0.5444808404        3.0366981799
 H         -1.3135829794        0.4167529213        4.0321744297
 H          0.6661735604        1.0236213611        2.6927116793
 H          1.2731121599        2.7191127204        0.6769032385
 C          0.5181176798        2.2606602094       -1.2693162613
 C          0.1055658395        3.6609474391       -1.6074377918
 C          1.4770603095        3.1759542392       -1.9671583817
 H          1.7046014395        2.9904302688       -3.0062870017
 H          2.3161956595        3.5437796697       -1.3946054120
 H         -0.6143305706        3.8063301086       -2.3990171618
 H          0.0139145394        4.3649797995       -0.7941609921
 H          0.0892618599        1.4514178890       -1.8511907109
