  62
        -98.94508096
 C         -2.3133664436       -0.5967027389        0.0694720943
 C         -1.5052922335        0.1039280197       -0.8517829752
 C         -1.6046360998        1.5756149868       -0.8498791719
 C         -2.4650638248        2.1641178992        0.0013844182
 C         -2.7569623998        3.6311577561        0.1866284644
 C         -1.6600893879        4.3732991072        0.9607486638
 C         -0.2405091767        4.1011982861        0.4720887933
 H          0.4440233404        4.6515564108        1.1242638516
 H         -0.0105630266        3.0417076777        0.6001197687
 C          0.0415899966        4.5268250684       -0.9677515015
 H         -0.2084826835        5.5839727894       -1.0841119074
 H          1.1181003475        4.4201249424       -1.1247700651
 C         -0.6734694476        3.7265610642       -2.0612376405
 H         -1.6933957000        4.0728393042       -2.2084136463
 H         -0.1433989557        3.9139949905       -2.9993646806
 C         -0.6635626645        2.2182357675       -1.8391418056
 H         -0.8570601586        1.7163633461       -2.7943429543
 H          0.3456288326        1.9072208761       -1.5431437340
 H         -1.7156779539        4.0695418243        2.0092925265
 H         -1.8685097298        5.4441271876        0.9071979231
 H         -2.9295928984        4.1042855434       -0.7757159756
 H         -3.6860412619        3.6910679190        0.7587625102
 O         -3.2334877413        1.4438222414        0.8712668384
 C         -3.1590641121        0.0680677651        0.9530274609
 O         -3.8890005816       -0.4425324416        1.8295628703
 H         -0.3715218615       -0.9251011590        1.6608349888
 C          0.0267596649       -1.7905603266        1.1510666564
 C         -0.7944156035       -2.5420736598        0.3204151382
 C         -0.2545987765       -3.6582747512       -0.3073535746
 C          1.0778737582       -3.9891639066       -0.1298557380
 C          1.9051104035       -3.2025736778        0.6508440667
 C          1.3714988151       -2.0901022043        1.2905152604
 N          2.1725421421       -1.2295835683        2.0720758813
 S          2.3584043553        0.3354469548        1.4938447682
 O          3.2526185275        0.9790998882        2.4331197235
 O          1.0704465860        0.9510649099        1.3147467700
 C          3.1986344584        0.1255350464       -0.0663891589
 C          2.4825424708       -0.2709629657       -1.1781112043
 C          3.1684722197       -0.5014848529       -2.3617480385
 C          4.5438439778       -0.3385943269       -2.4133075411
 C          5.2474292073        0.0584892472       -1.2858029988
 C          4.5709143407        0.2883008536       -0.0992825651
 H          5.0733146366        0.6010682634        0.8019816966
 H          6.3170917490        0.1869542391       -1.3271104364
 H          5.0692242905       -0.5214079576       -3.3374566170
 H          2.6135241598       -0.8092761386       -3.2334250283
 H          1.4106188065       -0.3887761037       -1.1232541599
 H          3.0861019377       -1.6086105924        2.2833073245
 H          2.9521526970       -3.4409783008        0.7636860084
 H          1.4821357237       -4.8592682631       -0.6241084385
 H         -0.8774109592       -4.2665657199       -0.9428061864
 C         -2.2307864758       -2.1100087314        0.1486779004
 H         -2.7926397355       -2.4001918241        1.0491920571
 C         -2.8970751458       -2.7292628038       -1.0641904033
 C         -3.6012328744       -4.0477403674       -0.9567330827
 C         -4.3933456453       -2.7856731583       -1.1141431025
 H         -4.8862721622       -2.5963805381       -2.0558661301
 H         -4.9292638185       -2.4034881482       -0.2571914856
 H         -3.5548654313       -4.7272431735       -1.7944408940
 H         -3.6123982960       -4.5330103475        0.0075503515
 H         -2.3742129895       -2.4988366086       -1.9854797401
 O         -0.7259642781       -0.4754370612       -1.6552478315
