  62
        -98.94413657
 C          1.7177484633        1.4470225833        0.2111989718
 C          2.0233639587        0.6914882082       -0.9467756584
 C          2.9072229061       -0.4688045686       -0.7481329339
 C          3.3216944681       -0.7864668745        0.4911246002
 C          4.1821052989       -1.9664265134        0.8365411231
 C          3.3434756235       -3.2136224636        1.1495953955
 C          2.2797625678       -3.5296265561        0.0982799322
 H          1.7789460031       -4.4496820125        0.4068509454
 H          1.5247093061       -2.7416068674        0.1002708598
 C          2.8209348250       -3.6943934744       -1.3279902796
 H          3.8964934394       -3.8731767696       -1.3019148076
 H          2.3566240212       -4.5733561847       -1.7801221551
 C          2.5261018026       -2.5108492529       -2.2512394339
 H          1.4595453748       -2.2724100198       -2.2100326283
 H          2.7486247266       -2.8163786168       -3.2773372128
 C          3.3266870211       -1.2318438325       -1.9740190517
 H          4.3909833791       -1.4723724452       -1.9264071915
 H          3.1670981070       -0.5539574007       -2.8178459566
 H          4.0200696235       -4.0641848955        1.2493882528
 H          2.8432506095       -3.0657872367        2.1093821187
 H          4.8551261795       -2.1703812760        0.0056571108
 H          4.7749472352       -1.7099468841        1.7162236314
 O          2.9659477619       -0.0714906167        1.5878973541
 C          2.1836996757        1.0658446628        1.4751343327
 O          1.9718328554        1.6455435796        2.5567303845
 H         -0.4853681775        1.2603741593       -1.6293080254
 C         -1.1253666069        1.5665060951       -0.8148815984
 C         -0.6015574108        2.3475537884        0.2047569899
 C         -1.4381687994        2.7250214441        1.2481028164
 C         -2.7643544225        2.3270546125        1.2684703330
 C         -3.2740451941        1.5207528701        0.2662643081
 C         -2.4403159593        1.1315614392       -0.7738361999
 N         -2.9164445881        0.2198745289       -1.7394271527
 S         -3.4684494854       -1.2281420905       -1.0895014578
 O         -3.0707215961       -2.2591765178       -2.0226798427
 O         -4.8857222956       -1.1229489362       -0.8450429351
 C         -2.6185434890       -1.4094128191        0.4736834516
 C         -1.2374576360       -1.3814389799        0.4949325803
 C         -0.5864474623       -1.4399038837        1.7160466069
 C         -1.3192158790       -1.5414515822        2.8882715616
 C         -2.7035077832       -1.5890753161        2.8493160085
 C         -3.3611201511       -1.5134539889        1.6321426193
 H         -4.4361854600       -1.5241138589        1.5559778932
 H         -3.2702403646       -1.6716404310        3.7625434160
 H         -0.8014709355       -1.5767467543        3.8337332575
 H          0.4904874221       -1.3857387066        1.7539359615
 H         -0.6851431688       -1.3028373177       -0.4293173381
 H         -2.2360745969        0.0336380738       -2.4637442165
 H         -4.2934532111        1.1693358772        0.2814167881
 H         -3.4029692165        2.6313168790        2.0832118883
 H         -1.0370930277        3.3160677264        2.0579995081
 C          0.8640568309        2.7089868369        0.1975079782
 H          1.0861871327        3.2270276557        1.1395872382
 C          1.1922676966        3.6427842395       -0.9509429711
 C          0.8415100472        5.0936878119       -0.8278387406
 C          2.2760795785        4.6621668753       -0.7798681875
 H          2.9128252895        4.8830299602       -1.6233550563
 H          2.7869245953        4.6940797143        0.1716918506
 H          0.4897361315        5.6141239535       -1.7053392855
 H          0.3808034660        5.4214462515        0.0917003683
 H          1.0946228735        3.1821147297       -1.9249118654
 O          1.5970216349        0.9478470995       -2.1061922931
