  62
        -98.93749638
 C         -2.2553628168       -0.9465432375        0.4147328691
 C         -2.4752496984       -0.0229920632       -0.6343029309
 C         -3.3214700543        1.1398200715       -0.3104932716
 C         -3.8031063195        1.2806659357        0.9362529503
 C         -4.6439226268        2.3995704476        1.4994103568
 C         -5.7875982545        2.9367021158        0.6285265889
 C         -6.4707451107        1.8901894650       -0.2637581536
 H         -6.1526143198        0.8870055041        0.0251967134
 H         -7.5503335377        1.9456435925       -0.1122065950
 C         -6.1939629892        2.1039875752       -1.7538315956
 H         -6.2737689724        3.1705096905       -1.9752325919
 H         -6.9672098793        1.5917178172       -2.3313426366
 C         -4.8431943026        1.5895994286       -2.2498512082
 H         -4.7260727343        1.9010491195       -3.2905004711
 H         -4.8370873505        0.4963425343       -2.2401069865
 C         -3.6191133184        2.0686544173       -1.4522950652
 H         -2.7481497366        2.0208459644       -2.1116248574
 H         -3.7444565975        3.0949393138       -1.1159541347
 H         -6.5223750384        3.3711350048        1.3085599930
 H         -5.4196982564        3.7497810565        0.0043602776
 H         -5.0503522223        2.0052983963        2.4340642726
 H         -3.9769917553        3.2258511080        1.7631905410
 O         -3.5363048784        0.3799720559        1.9263566167
 C         -2.7672726862       -0.7474370711        1.6944875707
 O         -2.6071455568       -1.4772297966        2.6954786842
 O         -1.9827906762       -0.1531938846       -1.7839388018
 C         -1.4134946424       -2.1844644065        0.1685721781
 C         -0.0182719085       -1.7984653495       -0.2622294402
 C          0.6646952117       -2.4365169710       -1.2892252499
 C          1.9516413637       -2.0495303339       -1.6215317229
 C          2.5846365035       -1.0257902619       -0.9416617749
 C          1.9165564823       -0.3895641345        0.0966329016
 C          0.6302259735       -0.7836837124        0.4310038052
 H          0.1124573874       -0.2889854336        1.2448474666
 N          2.5469430657        0.6600697660        0.7888068860
 S          4.0884959963        0.3914991140        1.3990032838
 O          4.2927828310       -1.0009435907        1.7258393396
 O          4.2333740287        1.3348265283        2.4864379474
 C          5.1680846936        0.8725200266        0.0675850889
 C          5.0201908879        2.1385022645       -0.4644015230
 C          5.8590300132        2.5331970938       -1.4942656121
 C          6.8282173075        1.6619128812       -1.9692037018
 C          6.9663279714        0.3956921941       -1.4217023835
 C          6.1294849674       -0.0061078167       -0.3920432802
 H          6.1953600807       -0.9828494145        0.0600777638
 H          7.7204906835       -0.2797944509       -1.7922132812
 H          7.4795217273        1.9720741068       -2.7710084072
 H          5.7539902340        3.5168753123       -1.9228771114
 H          4.2564262532        2.7850590472       -0.0653112688
 H          1.9609043176        1.0911590604        1.4890633623
 H          3.5836839520       -0.7173967776       -1.2026539651
 H          2.4677701829       -2.5504455855       -2.4261900056
 H          0.1883234808       -3.2357493857       -1.8326177897
 H         -1.3348161951       -2.6960546341        1.1399356985
 C         -2.1151924056       -3.1033295954       -0.8104794242
 C         -1.9345323142       -4.5878361160       -0.7194894533
 C         -3.2352873739       -3.9648813371       -0.3129182089
 H         -4.0981648612       -4.1073373501       -0.9460776024
 H         -3.4717042780       -3.9099113567        0.7402490670
 H         -1.9077536657       -5.1617518152       -1.6334661117
 H         -1.2903439636       -4.9668580341        0.0596378825
 H         -2.2249396979       -2.6571656222       -1.7921194929
