  62
        -98.94764097
 C          0.7830079773        1.2656830108        0.0470920836
 C          1.5031928665        0.6341346071        1.0878503124
 C          2.4092706252       -0.4458731809        0.6760495733
 C          2.4582500196       -0.8043537418       -0.6201709102
 C          3.4119858237       -1.8097568032       -1.1958895943
 C          4.7128725570       -1.1334022587       -1.6540003782
 C          5.3313310063       -0.2013954368       -0.6118910407
 H          6.2562718191        0.1936206177       -1.0377112709
 H          4.6640199954        0.6485589846       -0.4512875201
 C          5.6350024660       -0.8678327180        0.7372442460
 H          5.6507852674       -1.9519790955        0.6203370006
 H          6.6316598245       -0.5625688674        1.0629010489
 C          4.6660387011       -0.4939135845        1.8604463992
 H          4.5792148707        0.5938058996        1.9238154456
 H          5.0887841911       -0.8432411373        2.8063449004
 C          3.2549653812       -1.0839220875        1.7418956434
 H          3.3245362238       -2.1629768070        1.5913049271
 H          2.7363851350       -0.9003473226        2.6877219944
 H          5.4312348737       -1.9113165594       -1.9187744748
 H          4.5002464253       -0.5472463767       -2.5508746602
 H          3.6312475406       -2.5711009618       -0.4504667804
 H          2.9383963303       -2.2771519765       -2.0596151650
 O          1.6799045075       -0.2367711514       -1.5756799315
 C          0.8451724512        0.8289907608       -1.2762406813
 O          0.2245724054        1.2871063804       -2.2535760718
 H         -1.5257959463        0.2351525978        0.5382891538
 C         -2.0950671328        1.0294922964        0.0779648591
 C         -1.5015332678        2.2725417510       -0.1006933979
 C         -2.2508018286        3.2899442898       -0.6781039946
 C         -3.5563836379        3.0585782807       -1.0744682264
 C         -4.1416614453        1.8191910791       -0.8986282435
 C         -3.4013058864        0.7942433199       -0.3180575929
 N         -3.9564592078       -0.4794054572       -0.1633621281
 S         -3.3559887813       -1.6151031321        0.8896939409
 O         -4.3826888874       -2.6357443315        0.9233585315
 O         -3.0029563048       -1.0417562879        2.1676406590
 C         -1.9211827777       -2.2837009089        0.0777522779
 C         -2.0168015242       -2.6197493734       -1.2577770704
 C         -0.9305696559       -3.2148917074       -1.8777381535
 C          0.2218860354       -3.4742347165       -1.1526087062
 C          0.3046524769       -3.1249861250        0.1857388692
 C         -0.7751066870       -2.5207140145        0.8088460217
 H         -0.7448240085       -2.2228226188        1.8457378616
 H          1.2014441612       -3.3214965856        0.7502645566
 H          1.0607899071       -3.9533109892       -1.6317796163
 H         -0.9866914257       -3.4782416445       -2.9217204999
 H         -2.9319875489       -2.4138225163       -1.7875576666
 H         -4.9414288526       -0.5718573845       -0.3558119283
 H         -5.1588383020        1.6387922465       -1.2104577788
 H         -4.1268802213        3.8561589972       -1.5256552475
 H         -1.8125516065        4.2638650451       -0.8213982901
 C         -0.0832934647        2.4666215069        0.3736485575
 H         -0.0998912850        2.5280276097        1.4730244021
 C          0.5653518362        3.7234391023       -0.1734248255
 C          0.4190290505        5.0323309594        0.5418448453
 C          1.7322753164        4.3112820497        0.5601122958
 H          2.5534963837        4.7150147193       -0.0130576044
 H          2.0365055230        3.8235012634        1.4749242070
 H          0.3410145180        5.9354045246       -0.0447241327
 H         -0.1636615587        5.0433977954        1.4506694154
 H          0.6008024417        3.7312029097       -1.2574742219
 O          1.4069866384        0.9692786255        2.3005440684
