  62
        -98.94278326
 C          0.9526766700        1.5927784707       -0.8694943896
 C          2.1292244894        1.9397388309       -0.1563238886
 C          3.2319096796        0.9723139911       -0.1997156979
 C          3.0768533404       -0.1651033388       -0.9012543482
 C          4.1000603207       -1.2591652486       -0.9940954675
 C          3.9016301301       -2.3084621688        0.1082345722
 C          3.7299432889       -1.7148754690        1.5060748921
 H          2.7994270187       -1.1433459292        1.5391173315
 H          3.6212178285       -2.5486561191        2.2028968419
 C          4.8912667983       -0.8209382588        1.9629880031
 H          5.7730198089       -1.0172309985        1.3517492038
 H          5.1476359876       -1.0776765889        2.9930652033
 C          4.5860650880        0.6778596111        1.9416066631
 H          3.6514327776        0.8705585808        2.4746240424
 H          5.3831532375        1.1952132212        2.4824646338
 C          4.4870868690        1.3174005213        0.5509779731
 H          4.4665872686        2.4029770713        0.6849647532
 H          5.3713830795        1.0608329816       -0.0361069262
 H          4.7598269203       -2.9828738486        0.1004457227
 H          3.0066599504       -2.8859294089       -0.1267504386
 H          3.9974846716       -1.7424905785       -1.9669273677
 H          5.0943294206       -0.8222311484       -0.9207241767
 O          1.9435168510       -0.4604400890       -1.5836421591
 C          0.8485597008        0.3991876708       -1.5858922498
 O         -0.1086939286       -0.0207440093       -2.2585562406
 H         -1.2672458203        0.1932828201       -0.0907394015
 C         -1.5363060410        0.9742078400        0.6035874084
 C         -1.0759814711        2.2669192301        0.3955357989
 C         -1.4262032820        3.2570621499        1.3062708588
 C         -2.2239489028        2.9590887996        2.3966378981
 C         -2.6998014727        1.6746762994        2.5880031776
 C         -2.3539145018        0.6766127596        1.6837983777
 N         -2.8024254516       -0.6408717605        1.8540736272
 S         -3.2726522604       -1.5206703904        0.5059898367
 O         -3.8588453298       -0.6648435504       -0.4980838936
 O         -4.1451189206       -2.5470588907        1.0415368259
 C         -1.7931141597       -2.3076146200       -0.0864911722
 C         -0.9007937303       -2.8173487599        0.8361708184
 C          0.2114760002       -3.5041917196        0.3795906291
 C          0.4069111613       -3.6745963194       -0.9831817007
 C         -0.4970530282       -3.1549938695       -1.8945499714
 C         -1.6105790787       -2.4637780298       -1.4446962221
 H         -2.3252177882       -2.0270675898       -2.1233242526
 H         -0.3362022873       -3.2719459493       -2.9539459113
 H          1.2700896117       -4.2151293192       -1.3403443601
 H          0.9208169897       -3.9043683296        1.0870770796
 H         -1.0853499912       -2.6657077701        1.8869969182
 H         -3.4342453322       -0.7808960207        2.6293692067
 H         -3.3302674233        1.4411487792        3.4325064771
 H         -2.4844817135        3.7350131794        3.1003372080
 H         -1.0557929122        4.2613868900        1.1622307792
 C         -0.1966621703        2.5813439104       -0.7878780503
 H          0.2814846694        3.5545043705       -0.5897816998
 C         -0.9811071993        2.7262261104       -2.0829415409
 C         -2.3271393290        2.1183279502       -2.3224452821
 C         -2.2012866395        3.5984415202       -2.1298547418
 H         -2.3439693190        4.2462421003       -2.9816383218
 H         -2.5546043903        4.0102689900       -1.1963018720
 H         -2.7841764495        1.5248809200       -1.5452723325
 H         -2.5283172681        1.7395752403       -3.3134087323
 H         -0.3213764387        2.7686639507       -2.9444310804
 O          2.2519186186        3.0206028808        0.4814462816
