  62
        -98.94196097
 C          1.2023558635        1.5720904232        0.5155041941
 C          2.1230559312        1.1698068421       -0.4806641114
 C          3.1242523331        0.1686239341       -0.0754138781
 C          3.1235830184       -0.2981381531        1.1846663697
 C          4.0668743860       -1.2897730098        1.8180348925
 C          4.4219782003       -2.5456564292        1.0103080779
 C          3.3101680532       -3.0722385150        0.0905732184
 H          3.1839263693       -4.1429013371        0.2655141865
 H          2.3540766130       -2.5985805912        0.3256180056
 C          3.6224839705       -2.8774072161       -1.3951710058
 H          4.6675290810       -3.1427740583       -1.5731640625
 H          3.0033499419       -3.5687960982       -1.9722348706
 C          3.3600842952       -1.4752458393       -1.9417913008
 H          2.2824036091       -1.2863671479       -1.9554825075
 H          3.7043283986       -1.4473308018       -2.9787580063
 C          4.0279898549       -0.3269263081       -1.1665950453
 H          5.0019698489       -0.6226897640       -0.7842004855
 H          4.1608476579        0.5120109067       -1.8551209194
 H          5.3121685145       -2.3544914467        0.4120574703
 H          4.6891294394       -3.3186171310        1.7331217316
 H          4.9887401045       -0.7629252503        2.0821616643
 H          3.5829123745       -1.5832891238        2.7527295445
 O          2.2279378535        0.1313460563        2.1181370802
 C          1.2280952506        1.0343193382        1.7996927026
 O          0.4353504299        1.2757099084        2.7345226526
 H         -0.4176225183       -0.0800875628       -0.2164269054
 C         -0.9616879701        0.5247866709       -0.9238863960
 C         -0.8076269684        1.9029963948       -0.9051046395
 C         -1.4965957665        2.6554651909       -1.8488842259
 C         -2.3014116140        2.0314001231       -2.7866457929
 C         -2.4506150694        0.6558501571       -2.7992766347
 C         -1.7672834664       -0.1049605765       -1.8577749451
 N         -1.8659529982       -1.5033840390       -1.8320593041
 S         -1.7771702099       -2.3287295415       -0.3819665438
 O         -0.4318047195       -2.3139771483        0.1344546483
 O         -2.3202412875       -3.6349965283       -0.6888584539
 C         -2.8966457673       -1.4569238618        0.6992672379
 C         -2.4263252725       -0.6709156669        1.7304420637
 C         -3.3361278450        0.0323657329        2.5053671699
 C         -4.6927208541       -0.0627795868        2.2400450516
 C         -5.1517038550       -0.8655666185        1.2060287249
 C         -4.2474395673       -1.5661867983        0.4261827701
 H         -4.5644398051       -2.2094776809       -0.3785117056
 H         -6.2079635469       -0.9435647266        1.0052529596
 H         -5.3945343550        0.4894765337        2.8448007085
 H         -2.9664595098        0.6537261474        3.3057377091
 H         -1.3666241959       -0.6058646306        1.9232542882
 H         -2.5454563913       -1.9036646708       -2.4610724117
 H         -3.0765084034        0.1742258112       -3.5344474756
 H         -2.8247307719        2.6266193876       -3.5193641619
 H         -1.3957841725        3.7285623931       -1.8550168143
 C          0.0695608185        2.5164372161        0.1627117677
 H         -0.5370933728        2.6180469901        1.0758183968
 C          0.6039418497        3.8815594824       -0.2211120894
 C         -0.1676189259        5.1216312161        0.1143705613
 C          1.0894153845        4.7963419489        0.8618484943
 H          1.9718453841        5.3906306829        0.6785290373
 H          1.0046241678        4.4447868680        1.8801928381
 H         -1.1066149955        5.0037547798        0.6339457801
 H         -0.1467264680        5.9456404848       -0.5829120633
 H          1.1659273157        3.8601562234       -1.1474147198
 O          2.1121186885        1.6208298849       -1.6556036966
