  62
        -98.94585053
 C         -2.0697328507       -1.0785505641       -0.4664218923
 C         -1.0898956644       -1.4878306855       -1.4070355269
 C         -0.2503177120       -2.6279545177       -1.0293634306
 C         -0.4099951431       -3.1922194074        0.1811702395
 C          0.3742845333       -4.3534670920        0.7290768344
 C          1.7233494930       -3.9478097383        1.3387773765
 C          2.8149574505       -3.6042128410        0.3244515607
 H          3.7607287479       -3.5786406629        0.8694566072
 H          2.8853161742       -4.4008505458       -0.4176261810
 C          2.6173377680       -2.2540200500       -0.3785491068
 H          3.5661593545       -1.7109583337       -0.3963801717
 H          1.9187634558       -1.6446920495        0.2004726435
 C          2.1281619399       -2.3552981564       -1.8230070897
 H          2.0062142050       -1.3418778548       -2.2095988886
 H          2.8850491438       -2.8592676469       -2.4285912196
 C          0.7960314157       -3.0957665164       -1.9969547338
 H          0.4240803915       -2.8952330209       -3.0050607459
 H          0.9479351493       -4.1699072853       -1.8886108402
 H          2.0718733863       -4.7839561552        1.9500184070
 H          1.5637295517       -3.0921296078        2.0005287284
 H         -0.2396926485       -4.8001586960        1.5142352547
 H          0.5336362697       -5.0959974948       -0.0538117345
 O         -1.3479071404       -2.7671030002        1.0636682470
 C         -2.1809926344       -1.6884146744        0.7847929386
 O         -2.9611092827       -1.4145401588        1.7153656984
 H         -1.3016262121        0.6599176953        1.2609708179
 C         -1.3101945083        1.4715525765        0.5500266944
 C         -2.0983581457        1.3890029901       -0.5884217479
 C         -2.0895013050        2.4545080815       -1.4814010760
 C         -1.3076731731        3.5704439935       -1.2379222126
 C         -0.4819075216        3.6234751611       -0.1286302225
 C         -0.4744773636        2.5569393930        0.7620277191
 N          0.4115946230        2.5067400562        1.8599809932
 S          1.5558691636        1.2779477009        1.7799045222
 O          0.9096747600       -0.0074987195        1.8034730167
 O          2.4797140188        1.5541301663        2.8584392656
 C          2.3623031510        1.5557947965        0.2128986978
 C          3.5557875591        2.2516930394        0.1948555940
 C          4.1439497740        2.5464190745       -1.0243108610
 C          3.5223303885        2.1578875453       -2.2016935406
 C          2.3220469262        1.4655729807       -2.1670665340
 C          1.7344089077        1.1563229375       -0.9500914490
 H          0.8067729016        0.6075355303       -0.9006940146
 H          1.8282970841        1.1606955736       -3.0765295214
 H          3.9742730907        2.3937353893       -3.1520608948
 H          5.0794736957        3.0813704311       -1.0528998576
 H          3.9994754839        2.5358653499        1.1354405095
 H          0.8824920013        3.3826804166        2.0440573672
 H          0.1609265986        4.4739392006        0.0409343567
 H         -1.3163528077        4.3939302411       -1.9350937412
 H         -2.6838596271        2.3954018153       -2.3810770215
 C         -2.8975966791        0.1364446688       -0.8534265944
 H         -3.0314560548        0.0624746045       -1.9453741286
 C         -4.2807968575        0.1761652386       -0.2244827806
 C         -4.6266766646        1.0785849093        0.9178559704
 C         -5.1814400809        1.3555781117       -0.4453086422
 H         -6.2305606429        1.1738228078       -0.6220975502
 H         -4.7805725058        2.2008891968       -0.9830063958
 H         -3.8540498102        1.7277420806        1.3007691462
 H         -5.2790093071        0.6887755776        1.6838848607
 H         -4.7503271892       -0.8017756115       -0.2203512214
 O         -0.9326600525       -0.9205331711       -2.5228509182
