  62
        -98.94172932
 C         -2.1193246710       -0.8414350338        0.2590031667
 C         -2.9790073886       -0.2458959599        1.2167267773
 C         -3.7414822346        0.9229186358        0.7646047090
 C         -3.5397368851        1.4105951988       -0.4725493825
 C         -4.2185564016        2.6119738008       -1.0724883847
 C         -5.5965740605        2.3126836975       -1.6789139542
 C         -6.7102927366        2.0474147175       -0.6649771379
 H         -6.7371497515        2.8584165806        0.0634303279
 H         -7.6540180136        2.0704987560       -1.2133424462
 C         -6.5959213571        0.7011769836        0.0638639454
 H         -7.5700696381        0.2072782920        0.0721920413
 H         -5.9117604252        0.0486959890       -0.4838268847
 C         -6.1275341091        0.8039597054        1.5155003376
 H         -6.0467741600       -0.2073219664        1.9224647718
 H         -6.8723278967        1.3446525889        2.1034271221
 C         -4.7695478693        1.4959591981        1.6926912349
 H         -4.4263289780        1.3233286348        2.7157593888
 H         -4.8698599629        2.5694881102        1.5336714401
 H         -5.5034073392        1.4566635896       -2.3513149453
 H         -5.8810958202        3.1784343281       -2.2813552400
 H         -4.3133681529        3.3939396010       -0.3182243472
 H         -3.5623809482        2.9739713646       -1.8672340309
 O         -2.6460375126        0.8604456103       -1.3359992447
 C         -1.9269491146       -0.2839098545       -1.0065134539
 O         -1.1684321946       -0.6761403586       -1.9118173600
 O         -3.0956577144       -0.6666735034        2.3987982024
 C         -1.3339580738       -2.0682632393        0.6880904832
 C          0.1207971946       -1.9018700879        0.3268920383
 C          0.8223024431       -2.7774683151       -0.4900530632
 C          2.1523934731       -2.5394226242       -0.7907066701
 C          2.8105937404       -1.4345256852       -0.2838640349
 C          2.1167198942       -0.5487081682        0.5303586405
 C          0.7875440141       -0.7932835287        0.8353522330
 H          0.2449390243       -0.0978137190        1.4654035526
 N          2.7771619986        0.5758098602        1.0581533898
 S          3.6360788775        1.5611098486        0.0023113856
 O          3.6627565307        2.8587850961        0.6433674993
 O          3.0961312612        1.5161873220       -1.3364692342
 C          5.2776756914        0.8711893777        0.0279313069
 C          5.8742247368        0.4681398505       -1.1505861803
 C          7.1540637254       -0.0630434982       -1.1061236487
 C          7.8109592023       -0.1797502756        0.1092441393
 C          7.1989910334        0.2329816015        1.2835721883
 C          5.9203004630        0.7654694217        1.2459790723
 H          5.4107360401        1.1018587608        2.1333754600
 H          7.7132969419        0.1413081049        2.2266113502
 H          8.8061072865       -0.5944078697        0.1412433402
 H          7.6313554514       -0.3834468104       -2.0182820099
 H          5.3220121063        0.5736747995       -2.0711003648
 H          2.1942776587        1.1372570488        1.6624622966
 H          3.8438027235       -1.2428866193       -0.5229606720
 H          2.6836253860       -3.2239478295       -1.4343460527
 H          0.3215297222       -3.6317898617       -0.9144765063
 H         -1.4090801782       -2.0632929583        1.7889642878
 C         -1.9297135205       -3.3887855008        0.2241887407
 C         -3.3958176544       -3.5157709786       -0.0600127591
 C         -2.4051942435       -3.6079949552       -1.1796685654
 H         -2.2351106426       -4.5740407169       -1.6323672524
 H         -2.3239750109       -2.7826390286       -1.8692868603
 H         -3.9044894872       -4.4142592281        0.2556621223
 H         -3.9996107222       -2.6228830659        0.0159905842
 H         -1.4633372197       -4.2364609542        0.7167814009
