  62
        -98.94455911
 C         -2.6145855838       -1.2330074900        0.1369892398
 C         -2.6407390999       -0.2869320335       -0.9161441181
 C         -3.4552835588        0.9152924797       -0.6816680117
 C         -4.1221494736        1.0533531109        0.4778056760
 C         -4.9346454661        2.2531411447        0.8672884332
 C         -4.0820102344        3.2777571498        1.6286600160
 C         -2.7557742709        3.6122480589        0.9450239865
 H         -2.2579164695        4.3704890082        1.5535663787
 H         -2.1119638830        2.7288055540        0.9520556639
 C         -2.8940834356        4.1254397438       -0.4950913497
 H         -3.9149805515        4.4668122481       -0.6709551743
 H         -2.2356703173        4.9872924760       -0.6229401972
 C         -2.5070840798        3.1091021566       -1.5711959135
 H         -1.5198573531        2.6956719347       -1.3440038305
 H         -2.4257881603        3.6385115959       -2.5246016122
 C         -3.4884143250        1.9472334341       -1.7737794798
 H         -4.4989763016        2.3390145484       -1.9047353390
 H         -3.2001492876        1.4252037761       -2.6908564355
 H         -4.6679553881        4.1902446439        1.7523920721
 H         -3.8618940819        2.8769804203        2.6207079025
 H         -5.3548217338        2.7077044354       -0.0276294461
 H         -5.7491695771        1.9212004808        1.5131539099
 O         -4.0905100522        0.1172910841        1.4590555395
 C         -3.3296911770       -1.0294575039        1.3225000630
 O         -3.3768928768       -1.7915656364        2.3083261039
 H         -0.0229261226       -1.2064159546       -1.5022530266
 C          0.4203581082       -1.4916131628       -0.5598942861
 C         -0.3436214227       -2.1811530084        0.3710572474
 C          0.2325700897       -2.5036238451        1.5945468479
 C          1.5388529111       -2.1432373157        1.8753409220
 C          2.2933193888       -1.4474623557        0.9473672194
 C          1.7224494405       -1.1116660754       -0.2728627507
 N          2.4732489256       -0.3753057605       -1.2125758816
 S          3.0282368270        1.1235627801       -0.6853154669
 O          2.1748859197        1.6714169257        0.3450230525
 O          3.1873852356        1.9211437384       -1.8819290329
 C          4.6381142987        0.7581789945       -0.0173540473
 C          5.5587396064        0.1417752452       -0.8423412943
 C          6.8175398982       -0.1480608059       -0.3409309593
 C          7.1337451279        0.1843801378        0.9681314076
 C          6.1995893815        0.8061903171        1.7823404464
 C          4.9377689503        1.0976063268        1.2872612371
 H          4.1763168882        1.5734558950        1.8845530823
 H          6.4469834891        1.0639816853        2.7996344751
 H          8.1140682891       -0.0424982874        1.3563866411
 H          7.5467527067       -0.6316249593       -0.9707284523
 H          5.2728274734       -0.0958858868       -1.8532951419
 H          1.9881210946       -0.2641746454       -2.0928254436
 H          3.3076511236       -1.1537849442        1.1639051867
 H          1.9724179669       -2.4013594598        2.8295190886
 H         -0.3612191028       -3.0209860403        2.3344300466
 C         -1.7896321130       -2.5123947253        0.0883757978
 H         -2.1592016683       -3.1329290875        0.9152635893
 C         -1.9607041183       -3.2860087940       -1.2035179305
 C         -1.5914300364       -4.7376084606       -1.2316755383
 C         -3.0319564775       -4.3290296660       -1.2930358412
 H         -3.5634027928       -4.4415696148       -2.2260845074
 H         -3.6466673883       -4.4902696701       -0.4192603684
 H         -1.2291666948       -5.1782119372       -0.3151927214
 H         -1.1311185622       -5.1343842365       -2.1233945764
 H         -1.7691818355       -2.6987031852       -2.0913969365
 O         -2.0267508187       -0.4145916732       -2.0104010065
