  62
        -98.93010966
 C         -2.5486820940       -1.3121571572        0.0922437339
 C         -2.5241326662       -0.0835515258       -0.6099269391
 C         -3.8303182823        0.5641750203       -0.8473078635
 C         -4.9554132553       -0.0118380213       -0.3871697587
 C         -6.4096197594        0.3890276180       -0.5226757571
 C         -6.7934896193        1.8013057028       -0.9569210768
 C         -6.4302483012        2.8997474152        0.0415938194
 H         -6.6617826495        3.8649877809       -0.4140353996
 H         -7.0630079723        2.7892087274        0.9258888535
 C         -4.9781940366        2.9094558268        0.5135186980
 H         -4.8600245820        3.7402632685        1.2145785552
 H         -4.7653473632        1.9923278437        1.0669716512
 C         -3.9321511884        3.0789168357       -0.5867153328
 H         -4.1538255645        3.9751071154       -1.1694718686
 H         -2.9643268010        3.2268275463       -0.0994310758
 C         -3.7847059761        1.8894225392       -1.5515158308
 H         -4.5255094011        1.9290317966       -2.3465143545
 H         -2.7971884223        1.9561067535       -2.0173273153
 H         -7.8809996598        1.8060703466       -1.0705418715
 H         -6.3745363351        2.0224685055       -1.9341180049
 H         -6.8492891457       -0.3216771523       -1.2314377523
 H         -6.8668910589        0.1767635876        0.4489469397
 O         -4.9264492885       -1.1922256128        0.2996395324
 C         -3.7425375567       -1.8516395787        0.5741892999
 O         -3.8828027232       -2.8913545729        1.2491308445
 H          1.1410863897       -1.2757594465       -0.6340183997
 C          0.9370963479       -0.8248519950        0.3247658229
 C         -0.2460561072       -1.1160303116        0.9834224117
 C         -0.4972046337       -0.4983479279        2.2054917372
 C          0.4087722860        0.3934562346        2.7462802002
 C          1.5839602160        0.6919117294        2.0794434733
 C          1.8435720951        0.0832453435        0.8594444023
 N          3.0187363855        0.4047217019        0.1558650740
 S          4.4616194315        0.4922654915        1.0251085562
 O          4.6151772797       -0.6822760077        1.8558828089
 O          4.5108768281        1.7578232149        1.7135049520
 C          5.6527647977        0.4799891492       -0.2999049996
 C          5.8736229378        1.6512930055       -0.9994657726
 C          6.7792410558        1.6436764320       -2.0481904716
 C          7.4449531771        0.4722162804       -2.3779637037
 C          7.2136675520       -0.6948765767       -1.6657204557
 C          6.3077576398       -0.6947514349       -0.6165823971
 H          6.1019710745       -1.5761908757       -0.0306333561
 H          7.7348916037       -1.6029449339       -1.9228167603
 H          8.1504687287        0.4694947319       -3.1937984973
 H          6.9634783973        2.5492958141       -2.6033085873
 H          5.3397212166        2.5388411971       -0.7025190134
 H          3.1284366784       -0.1582774328       -0.6764834330
 H          2.2994426596        1.3866852613        2.4888743228
 H          0.1991403430        0.8650791148        3.6950856277
 H         -1.4202327255       -0.7232258315        2.7239323615
 C         -1.2776321184       -2.0712068808        0.4350187758
 H         -1.5687592247       -2.7518689639        1.2522074135
 C         -0.7501247072       -2.9511458484       -0.6882418089
 C         -1.6929684115       -3.6134338261       -1.6470484798
 C         -0.7738758933       -2.5323400788       -2.1264098467
 H          0.0592583530       -2.8138518833       -2.7542402000
 H         -1.1904138415       -1.5657342036       -2.3603013543
 H         -1.4924171941       -4.6321074767       -1.9431601737
 H         -2.7446466870       -3.3869573932       -1.5473993307
 H          0.1013601680       -3.5436039599       -0.3660352606
 O         -1.4740972388        0.4591106321       -1.0388128719
