  62
        -98.93220656
 C          1.9394539638        0.8423966437        0.3422224681
 C          2.6818687787       -0.2230042178        0.9074741877
 C          4.0848157272       -0.3712229457        0.4814514523
 C          4.5771979621        0.4819668934       -0.4342196292
 C          5.9630360025        0.5396872373       -1.0252081602
 C          6.5889374354       -0.8005885382       -1.4405979295
 C          7.7463591336       -1.2360275046       -0.5403606125
 H          8.3920601312       -1.9131143034       -1.1041478489
 H          8.3404194448       -0.3553542901       -0.2873440949
 C          7.3351608147       -1.9537437550        0.7440626742
 H          8.2333363546       -2.0814831151        1.3529835964
 H          6.9657727217       -2.9516994181        0.4977940477
 C          6.2723076850       -1.2401103811        1.5821587835
 H          6.3605926898       -1.6011223536        2.6091580177
 H          6.4607673069       -0.1673838517        1.6053662553
 C          4.8343649569       -1.5112932457        1.1149541203
 H          4.8186883997       -2.3659583222        0.4320382973
 H          4.2184700917       -1.8029288666        1.9715978444
 H          6.9757403104       -0.6875152025       -2.4547144352
 H          5.8224735510       -1.5735910682       -1.4729370364
 H          5.8724423949        1.1928113361       -1.8961184204
 H          6.6205041907        1.0527018000       -0.3188973882
 O          3.8256471902        1.4885922167       -0.9600127971
 C          2.5017246402        1.7013407772       -0.6020087719
 O          1.9740330092        2.6616132371       -1.1900141023
 H         -1.3515469853       -0.8333526771        1.5431951271
 C         -1.3357868226       -0.6892134147        0.4713672346
 C         -0.4276375863        0.2000548148       -0.0839641183
 C         -0.4097542922        0.3602863907       -1.4659540775
 C         -1.2764755691       -0.3603319587       -2.2674476907
 C         -2.1805944118       -1.2476958670       -1.7097246100
 C         -2.2095724473       -1.4109814211       -0.3316176053
 N         -3.1551513731       -2.2878035231        0.2383479788
 S         -4.7617549326       -1.9203031791       -0.0837181485
 O         -5.5230189013       -2.5712870380        0.9577168638
 O         -5.0749823456       -2.3015583008       -1.4367974772
 C         -4.8327804175       -0.1473586634        0.0927171757
 C         -4.8850531233        0.3796743289        1.3681438820
 C         -4.8375098144        1.7549121685        1.5279217383
 C         -4.7243626166        2.5751441855        0.4156195564
 C         -4.6756097082        2.0305350792       -0.8578434614
 C         -4.7296786108        0.6559005011       -1.0249767888
 H         -4.6975875867        0.1949235949       -1.9982480916
 H         -4.5881641898        2.6712862101       -1.7204474797
 H         -4.6709095143        3.6444650107        0.5427257780
 H         -4.8792957158        2.1825981945        2.5167982245
 H         -4.9740438495       -0.2914497074        2.2076695291
 H         -3.0253266699       -2.4236900473        1.2310574510
 H         -2.8677515665       -1.8123173083       -2.3190583591
 H         -1.2489312329       -0.2289396660       -3.3385963826
 H          0.2873803626        1.0600119005       -1.9016611012
 C          0.5010914420        0.9863756424        0.8048941624
 H          0.4827379018        0.5126230140        1.7991898493
 C          0.0589039046        2.4329188781        0.9819358957
 C         -0.9973844601        3.0861345794        0.1464197695
 C         -1.2883656221        2.7305309924        1.5712165166
 H         -1.3708375510        3.5219461021        2.3001653680
 H         -1.9474806767        1.8934435556        1.7473239905
 H         -0.8519418620        4.1228898257       -0.1146133417
 H         -1.4711870605        2.5045607441       -0.6284710532
 H          0.8790854088        3.0690834985        1.2973868029
 O          2.1892697911       -1.0196902541        1.7529413740
