  62
        -98.94403935
 C          1.8306889483        1.1380895575        0.2483658864
 C          2.1650782520        0.1357149856       -0.6937036480
 C          3.5945123188        0.0133624587       -1.0087567216
 C          4.4814195115        0.8481231971       -0.4370871777
 C          5.9673977492        0.8592445314       -0.6737586856
 C          6.7422468287       -0.1527731004        0.1814443714
 C          6.5709007896       -1.6164211318       -0.2272108191
 H          6.7759341217       -1.7215162745       -1.2929904564
 H          7.3300631361       -2.1896673313        0.3085865902
 C          5.1903164121       -2.2065099317        0.0933373667
 H          5.3117027180       -3.1878879538        0.5573819345
 H          4.6810700528       -1.5701202730        0.8207033869
 C          4.2813216695       -2.3902932314       -1.1221440608
 H          4.7158106134       -3.1315672189       -1.7967018678
 H          3.3176126270       -2.7736991047       -0.7760644045
 C          4.0192227232       -1.1026954123       -1.9143546810
 H          4.9068764528       -0.8206800047       -2.4803467996
 H          3.2014362809       -1.2918930780       -2.6143360439
 H          6.4439440440       -0.0289125279        1.2250056012
 H          7.8020586330        0.1011649902        0.1062748902
 H          6.1719450524        0.6780668788       -1.7292200815
 H          6.3150821617        1.8626090857       -0.4187447659
 O          4.1130447287        1.8206891286        0.4389374386
 C          2.7896456092        1.9732113930        0.8210372594
 O          2.5976581355        2.8732833011        1.6635947444
 H         -2.0326962971        0.1308871675        0.0779228116
 C         -1.4395028750       -0.4321090949        0.7785941949
 C         -0.1914817958        0.0285601012        1.1686457919
 C          0.5435810380       -0.7267147817        2.0791220953
 C          0.0557179026       -1.9257143339        2.5594651646
 C         -1.1787327875       -2.3954866080        2.1467971584
 C         -1.9300432475       -1.6414619838        1.2537408174
 N         -3.2065609130       -2.0692749076        0.8692049669
 S         -3.8714322898       -1.6950039615       -0.6160764733
 O         -4.9818071243       -2.6167624781       -0.7422885521
 O         -2.9022630982       -1.7282728427       -1.6850931931
 C         -4.5202873109       -0.0485574296       -0.4167101957
 C         -5.0948543702        0.3100409351        0.7866447177
 C         -5.6393489981        1.5776765994        0.9163097203
 C         -5.6103184172        2.4575800450       -0.1548444941
 C         -5.0351422809        2.0804011681       -1.3584749346
 C         -4.4834808546        0.8155817038       -1.4929211575
 H         -4.0139170841        0.4855010770       -2.4063236345
 H         -5.0133511122        2.7651329812       -2.1916720087
 H         -6.0356776827        3.4433024183       -0.0519596403
 H         -6.0855351172        1.8753856515        1.8514579775
 H         -5.1015137781       -0.3982290665        1.5979537798
 H         -3.4653456077       -2.9939890524        1.1792148874
 H         -1.5574120426       -3.3376948865        2.5126273960
 H          0.6431052898       -2.5049261044        3.2562102490
 H          1.5121669363       -0.3635101815        2.3960307227
 C          0.3845562750        1.3300583603        0.6670167323
 H          0.4037731144        2.0418633447        1.5057555044
 C         -0.4099415222        1.9420624313       -0.4682483894
 C         -1.5664074302        2.8484167192       -0.1738430103
 C         -0.2905119470        3.4142651448       -0.7190758867
 H         -0.2729861580        3.7631069610       -1.7406462433
 H          0.3490333827        3.9769380322       -0.0544641346
 H         -2.4297816130        2.8097917876       -0.8205768221
 H         -1.8010005479        3.0363044393        0.8628654705
 H         -0.4739964702        1.2885989789       -1.3318315016
 O          1.3197046656       -0.6187271643       -1.2419490802
