  62
        -98.94288081
 C         -2.0302551958       -0.3875498322        0.0884349462
 C         -2.7470013596        0.8373925605        0.0353365898
 C         -4.1197309464        0.7746331229       -0.4806651006
 C         -4.6137087289       -0.4100981319       -0.8832168866
 C         -6.0111422529       -0.6351628988       -1.3815361815
 C         -6.9561641807       -1.0125952986       -0.2322712488
 C         -6.8609007714       -0.0807305324        0.9757422113
 H         -7.5927800539       -0.4237143421        1.7102524178
 H         -5.8739694031       -0.1876372639        1.4317053182
 C         -7.1122542263        1.3996207234        0.6564838399
 H         -7.6203186510        1.4908361956       -0.3042031159
 H         -7.7787173281        1.8135811866        1.4161172687
 C         -5.8536178250        2.2694179151        0.6476656380
 H         -5.2916529226        2.1107879501        1.5716731572
 H         -6.1645794672        3.3175093214        0.6309659634
 C         -4.9023256130        2.0563427122       -0.5368120973
 H         -5.4596759374        2.1264330022       -1.4732765027
 H         -4.1613573811        2.8610228837       -0.5170490460
 H         -7.9791734988       -1.0145801687       -0.6127986643
 H         -6.7136292877       -2.0255173798        0.0970588016
 H         -6.3645116879        0.2680239627       -1.8752263900
 H         -5.9906618785       -1.4507616259       -2.1062380428
 O         -3.8965275808       -1.5582904907       -0.8357624136
 C         -2.5967913497       -1.5856663256       -0.3485025062
 O         -2.0864501867       -2.7224905060       -0.3731167024
 O         -2.2577742832        1.9371974166        0.4114176919
 C         -0.6224299806       -0.3201192626        0.6517936445
 C          0.4371739343       -0.2497044735       -0.4223725659
 C          0.4968928073       -1.1764907118       -1.4581379197
 C          1.4940254003       -1.0969627113       -2.4129435205
 C          2.4666827365       -0.1149253323       -2.3377693845
 C          2.4241005213        0.8066042877       -1.2996013972
 C          1.4041823292        0.7432239422       -0.3599365395
 H          1.3816050858        1.4761225296        0.4321577739
 N          3.4149137302        1.8010704424       -1.1646250308
 S          4.3438322215        1.7530515991        0.2301794736
 O          3.5104234527        1.9887812382        1.3798987623
 O          5.4168020793        2.6948956679        0.0050496891
 C          4.9901466903        0.0897801708        0.2599325128
 C          4.1921171051       -0.9323857452        0.7350909756
 C          4.6663208411       -2.2332692827        0.6724039111
 C          5.9212828744       -2.4888239084        0.1414521841
 C          6.7120154330       -1.4505620075       -0.3272724290
 C          6.2412472779       -0.1485352875       -0.2749685355
 H          6.8215570560        0.6892988687       -0.6265457958
 H          7.6889524149       -1.6518888904       -0.7363841537
 H          6.2841978710       -3.5034214960        0.0940803653
 H          4.0490101807       -3.0400591264        1.0337624665
 H          3.2217039289       -0.7021717205        1.1435284390
 H          4.0231874105        1.8776755058       -1.9684144825
 H          3.2512499066       -0.0608251427       -3.0774650404
 H          1.5220124488       -1.8164961754       -3.2169540102
 H         -0.2447172514       -1.9585440004       -1.5065408227
 H         -0.5835254646        0.6259459012        1.2096737670
 C         -0.2934314168       -1.4490385492        1.6113024233
 C          0.7672454897       -1.2333520847        2.6475731602
 C         -0.6733205769       -1.3190490279        3.0540051101
 H         -1.0123920273       -2.1994826202        3.5787007723
 H         -1.1709061880       -0.4100073562        3.3600549829
 H          1.4185363883       -2.0566648751        2.8988765963
 H          1.2461335967       -0.2649506966        2.6864779602
 H         -0.3712283497       -2.4299301398        1.1605731875
