  62
        -98.94033243
 C          2.0151263883        1.1036624124        0.4172935079
 C          2.6529568120        0.1516849013        1.2543968037
 C          4.0699606261       -0.1078861084        0.9843845069
 C          4.6893890840        0.5558454279       -0.0083267317
 C          6.1373115172        0.4232967921       -0.3950759352
 C          6.4270041417       -0.7558331740       -1.3338569274
 C          6.3574395837       -2.1379361398       -0.6831222781
 H          6.7925892790       -2.8471069984       -1.3901224561
 H          6.9794337038       -2.1487350738        0.2125300730
 C          4.9369146914       -2.6019021824       -0.3314730553
 H          4.2091233469       -1.9972138576       -0.8778537231
 H          4.8001523523       -3.6356872973       -0.6569834086
 C          4.6028054621       -2.5494764684        1.1594500648
 H          5.2360200850       -3.2551121764        1.7019845845
 H          3.5632046977       -2.8621239177        1.2878008467
 C          4.7623968507       -1.1618602080        1.7942287475
 H          4.2968194056       -1.1815219539        2.7827071361
 H          5.8188749195       -0.9204322052        1.9098032267
 H          5.7296040170       -0.7136032788       -2.1736645054
 H          7.4348532863       -0.6158041782       -1.7314432468
 H          6.4073846533        1.3476106552       -0.9102965694
 H          6.7497564774        0.3341515766        0.5026801870
 O          4.0485009768        1.4668912423       -0.7840333257
 C          2.6963161057        1.7463012848       -0.6174489377
 O          2.2557206236        2.5738177887       -1.4355512818
 O          2.0615840487       -0.4453340301        2.1941083400
 C          0.5429700098        1.3618762568        0.6889670884
 C         -0.2941170584        0.4400972056       -0.1596470433
 C         -0.2500286249        0.5040350060       -1.5495884977
 C         -1.0235787313       -0.3486156437       -2.3153954819
 C         -1.8557166678       -1.2785614250       -1.7148737431
 C         -1.9011246015       -1.3532717850       -0.3300710863
 C         -1.1250168246       -0.4952123669        0.4383660718
 H         -1.1556562618       -0.5661972832        1.5172579877
 N         -2.7762302283       -2.2773729639        0.2816272837
 S         -4.4033653351       -2.0033018536       -0.0312850106
 O         -5.1233546448       -2.6655369302        1.0324108715
 O         -4.7067138556       -2.4337095328       -1.3717870401
 C         -4.5614740695       -0.2319366260        0.1002227605
 C         -4.6189746823        0.3270117663        1.3616380647
 C         -4.6298240839        1.7069054418        1.4836990132
 C         -4.5694366106        2.5004094232        0.3481694325
 C         -4.5149560674        1.9235488013       -0.9109837172
 C         -4.5092782521        0.5438553784       -1.0401671346
 H         -4.4674312984        0.0570336798       -2.0005200407
 H         -4.4687008037        2.5439225139       -1.7915154589
 H         -4.5598449714        3.5742082377        0.4454532292
 H         -4.6763479643        2.1593067807        2.4615084445
 H         -4.6657070506       -0.3239684044        2.2202796900
 H         -2.6308611842       -2.3579862556        1.2784021087
 H         -2.4758099475       -1.9417788906       -2.2963065827
 H         -0.9801140176       -0.2885193785       -3.3923871971
 H          0.3975574669        1.2312684574       -2.0158198113
 H          0.4038059053        1.0604517789        1.7386023482
 C          0.1433210927        2.8272701372        0.5681477169
 C         -0.9969890900        3.3011683322       -0.2802399146
 C         -1.1287321881        3.2975225644        1.2103822276
 H         -1.1259575528        4.2387774970        1.7384321195
 H         -1.7660718831        2.5439887980        1.6489878545
 H         -0.8782310905        4.2451910777       -0.7896386566
 H         -1.5608996233        2.5706642046       -0.8389130544
 H          0.9951374297        3.4944072301        0.6347433093
