6
        -98.94091908
 C         -2.2860170042       -0.5189652636        0.1756956699
 C         -3.5566128529       -1.0466050987        0.5085215301
 C         -4.6524715709       -0.0732323162        0.6006814389
 C         -4.3915349909        1.2307325461        0.3944397962
 C         -5.4213755136        2.3224295741        0.4082607650
 C         -5.9962751329        2.5614300832       -0.9948982479