  62
        -98.94091908
 C         -2.2860170042       -0.5189652636        0.1756956699
 C         -3.5566128529       -1.0466050987        0.5085215301
 C         -4.6524715709       -0.0732323162        0.6006814389
 C         -4.3915349909        1.2307325461        0.3944397962
 C         -5.4213755136        2.3224295741        0.4082607650
 C         -5.9962751329        2.5614300832       -0.9948982479
 C         -6.4456077201        1.2835737558       -1.7035489328
 H         -6.8613278618        1.5769380341       -2.6699405901
 H         -5.5700860798        0.6623233979       -1.9062296094
 C         -7.4834968646        0.4594077111       -0.9289131285
 H         -7.9520632689        1.0792978548       -0.1637870620
 H         -8.2694161968        0.1478353812       -1.6200556589
 C         -6.9296063224       -0.8115274234       -0.2822844425
 H         -6.3768526076       -1.3899736928       -1.0267955870
 H         -7.7748685996       -1.4224318998        0.0454493391
 C         -6.0203580224       -0.5990435076        0.9347217006
 H         -6.5176914178        0.0513259531        1.6570045210
 H         -5.8591370141       -1.5742979655        1.4031872038
 H         -6.8398021859        3.2488634289       -0.9096792403
 H         -5.2277182991        3.0400584827       -1.6063340304
 H         -6.2189349334        2.0535597501        1.0980744439
 H         -4.9442956259        3.2398201654        0.7570349953
 O         -3.1523340280        1.7032736417        0.1008855539
 C         -2.0705714206        0.8439502202       -0.0261844788
 O         -0.9968606437        1.4091795605       -0.3115919611
 H          1.5653166236       -0.9832611378       -0.4804465489
 C          1.2992850123       -0.8527292850        0.5539671982
 C         -0.0035721225       -1.0579133407        0.9788126251
 C         -0.3031760444       -0.8824650747        2.3278566063
 C          0.6720251815       -0.4865189179        3.2212230347
 C          1.9652082189       -0.2527236643        2.7871139553
 C          2.2795624783       -0.4397415503        1.4467811167
 N          3.6039607068       -0.2588812280        1.0005793842
 S          3.9221661246        0.5730840624       -0.4343500015
 O          3.4988872530        1.9522949836       -0.3221005673
 O          3.4046040106       -0.1747917497       -1.5503382811
 C          5.7040453998        0.4813522216       -0.4331859819
 C          6.4516588584        1.5922777642       -0.0931811106
 C          7.8342414864        1.4912587640       -0.0775860213
 C          8.4418342334        0.2868380848       -0.3978921334
 C          7.6778703262       -0.8199226231       -0.7381836825
 C          6.2957012422       -0.7249458859       -0.7571335121
 H          5.6618713499       -1.5546686603       -1.0228549658
 H          8.1540586744       -1.7541456308       -0.9887356528
 H          9.5176242407        0.2106030527       -0.3845151691
 H          8.4305125015        2.3506346402        0.1836834326
 H          5.9357295863        2.5095006252        0.1416515728
 H          4.1908877969        0.1258014120        1.7305189565
 H          2.7251642550        0.0706937209        3.4826836601
 H          0.4234949164       -0.3480409509        4.2628923534
 H         -1.3178201569       -1.0518987981        2.6628344692
 C         -1.1102300505       -1.4693194109        0.0403274027
 H         -1.4891071674       -2.4511871027        0.3620005960
 C         -0.6763599324       -1.5673192220       -1.4067130775
 C         -0.0119203010       -2.8119458547       -1.9116096745
 C         -1.4147043609       -2.4895329478       -2.3281530833
 H         -1.5930302705       -2.1692235413       -3.3437663746
 H         -2.2209462111       -3.0702825458       -1.9041106046
 H          0.7796896377       -2.7097132984       -2.6386301023
 H          0.1351552902       -3.6178563427       -1.2086625109
 H         -0.3471731072       -0.6149648724       -1.8100938639
 O         -3.7620347377       -2.2714656554        0.7232284309
