  62
        -98.94075386
 C         -2.0220179345       -1.3385141070        0.3702040961
 C         -2.4972769556       -0.6314582094       -0.7622546300
 C         -3.7002059860        0.1895435744       -0.5457805216
 C         -4.2627948476        0.2369553114        0.6745612227
 C         -5.4550483055        1.0714530427        1.0409346801
 C         -5.0274847517        2.4519555632        1.5585918545
 C         -4.0114248831        3.1602278663        0.6621497848
 H         -3.8066570880        4.1354953487        1.1093991582
 H         -3.0730712589        2.6003369292        0.6720882691
 C         -4.4698915844        3.3502908822       -0.7905390860
 H         -5.5527931738        3.2375862715       -0.8546807541
 H         -4.2310666822        4.3694161970       -1.1018957679
 C         -3.8020934409        2.4098845123       -1.7958629781
 H         -2.7164140291        2.4505040541       -1.6725030126
 H         -4.0288350867        2.7726896156       -2.8019621807
 C         -4.2402453808        0.9412925887       -1.7295908133
 H         -5.3299820679        0.8802435038       -1.7623532679
 H         -3.8396823799        0.4372020415       -2.6140264034
 H         -5.9186345555        3.0735373960        1.6621669165
 H         -4.5826374358        2.3283899226        2.5488199457
 H         -6.0970942299        1.1813139327        0.1692579149
 H         -6.0089350328        0.5546157173        1.8265590895
 O         -3.7661340312       -0.4382073664        1.7426389270
 C         -2.6268187355       -1.2179769758        1.6236750946
 O         -2.2507263823       -1.7389851829        2.6930187384
 H          0.2164494997        0.1598842860        0.9438112942
 C          0.7103960830       -0.2326392682        0.0625105511
 C          0.3180141999       -1.4704787770       -0.4344806589
 C          0.9620054378       -1.9651116568       -1.5599796919
 C          1.9511613587       -1.2237653578       -2.1836229582
 C          2.3232051180        0.0160966405       -1.6995399133
 C          1.6935466866        0.5151345082       -0.5656898146
 N          2.0699139037        1.7704772877       -0.0588290645
 S          3.7013872203        2.1287189819        0.0309309011
 O          3.8190999673        3.0819389540        1.1124012465
 O          4.1735384188        2.5773555461       -1.2552197432
 C          4.4976025148        0.5913037690        0.4624384862
 C          4.1339069072       -0.0191314689        1.6465090245
 C          4.7180031911       -1.2289341696        1.9840652382
 C          5.6518001334       -1.8048223810        1.1359436922
 C          6.0107071482       -1.1767107432       -0.0462956304
 C          5.4277348976        0.0326124543       -0.3900224712
 H          5.6753267807        0.5537744421       -1.3003910626
 H          6.7387716894       -1.6257002890       -0.7023923521
 H          6.1020050968       -2.7484684954        1.4006503029
 H          4.4399599175       -1.7183631733        2.9037679900
 H          3.4088726717        0.4569182205        2.2874650459
 H          1.5860362369        2.0381143393        0.7849563211
 H          3.0751000888        0.6138179253       -2.1887161072
 H          2.4337662843       -1.6143695371       -3.0663828784
 H          0.6704097463       -2.9182333885       -1.9684240388
 C         -0.7754791521       -2.2050501254        0.3026747295
 H         -0.4535717717       -2.3158909570        1.3516207517
 C         -1.0196636292       -3.6124359501       -0.2213347032
 C         -2.3586579366       -4.2699845532       -0.0744928243
 C         -1.8579263217       -3.8851312330       -1.4325791278
 H         -1.5468877206       -4.6725208548       -2.1036740034
 H         -2.3074325716       -3.0404155280       -1.9294080491
 H         -2.3891940883       -5.3169008231        0.1879074241
 H         -3.1581572447       -3.6884260843        0.3616765904
 H         -0.1557088260       -4.2528395360       -0.0730975633
 O         -1.9577143102       -0.6727119917       -1.8969720609
